61
Lattice="11.582409075835649 0.0 0.0 5.7912045379178245 10.030660496697113 0.0 0.0 0.0 37.82124676165759" Properties=species:S:1:pos:R:3:Z:I:1:magmoms:R:1:tags:I:1 Origin=Mutated New=T fitness=1892.9880166 pbc="T T F" Ascendance=6
H      11.58240908       8.90630932       2.86193171        1       0.00000000        2 
H       7.71850805       8.91793037       2.86125925        1       0.00000000        2 
H      15.44631011       8.91793037       2.86125925        1       0.00000000        2 
H       9.66052267       5.57750442       2.86193170        1       0.00000000        2 
H       5.79120454       5.56194977       2.86140756        1       0.00000000        2 
H      13.50429548       5.57750442       2.86193170        1       0.00000000        2 
H       7.71239285       2.23435394       2.86140755        1       0.00000000        2 
H       3.87001622       2.23435394       2.86140755        1       0.00000000        2 
H      11.58240908       2.22545752       2.86125925        1       0.00000000        2 
Si      11.58240908       8.91614266       4.36424935       14       0.00000000        2 
Si       7.72160605       8.91614266       4.36424935       14       0.00000000        2 
Si      15.44321210       8.91614266       4.36424935       14       0.00000000        2 
Si       9.65200756       5.57258916       4.36424935       14       0.00000000        2 
Si       5.79120454       5.57258916       4.36424935       14       0.00000000        2 
Si      13.51281059       5.57258916       4.36424935       14       0.00000000        2 
Si       7.72160605       2.22903567       4.36424935       14       0.00000000        2 
Si       3.86080303       2.22903567       4.36424935       14       0.00000000        2 
Si      11.58240908       2.22903567       4.36424935       14       0.00000000        2 
Si       9.65200756       7.80162483       5.15233247       14       0.00000000        2 
Si       5.79120454       7.80162483       5.15233247       14       0.00000000        2 
Si      13.51281059       7.80162483       5.15233247       14       0.00000000        2 
Si       7.72160605       4.45807133       5.15233247       14       0.00000000        2 
Si       3.86080303       4.45807133       5.15233247       14       0.00000000        2 
Si      11.58240908       4.45807133       5.15233247       14       0.00000000        2 
Si       5.79120454       1.11451783       5.15233247       14       0.00000000        2 
Si       1.93040151       1.11451783       5.15233247       14       0.00000000        2 
Si       9.65200756       1.11451783       5.15233247       14       0.00000000        2 
Si       9.61339658       7.78768812       7.45374089       14       0.00000000        1 
Si       5.70567164       7.72633353       7.52830714       14       0.00000000        1 
Si      13.56516160       7.85862479       7.57466426       14       0.00000000        1 
Si       7.65542783       4.44399298       7.55589932       14       0.00000000        1 
Si       3.92216317       4.44679234       7.57865345       14       0.00000000        1 
Si      11.52883729       4.37737464       7.55070439       14       0.00000000        1 
Si       5.92884249       1.11643941       7.58113404       14       0.00000000        1 
Si       1.96959518       0.99225081       7.49614246       14       0.00000000        1 
Si       9.61570661       0.99484222       7.52545606       14       0.00000000        1 
Si      11.55515259       6.68927020       8.21922973       14       0.00000000        1 
Si       7.69663630       6.74406833       8.41347453       14       0.00000000        1 
Si       3.82193194       6.64549449       8.51862933       14       0.00000000        1 
Si       9.56924917       3.23366459       8.29035606       14       0.00000000        1 
Si       5.79282226       3.30547112       8.55778937       14       0.00000000        1 
Si       1.94965972       3.22944562       8.25211584       14       0.00000000        1 
Si       7.75598025       0.00119412       8.67043294       14       0.00000000        1 
Si       3.97096327      -0.03158387       8.30873229       14       0.00000000        1 
Si       0.00209120      -0.07324054       8.30142486       14       0.00000000        1 
Si       8.95916684       3.39752362      10.56560768       14       0.00000000      999 
Si       5.71841271       3.17970844      10.93065390       14       0.00000000      999 
Si       0.93794973       4.56526178      10.36668061       14       0.00000000      999 
Si       7.51320151       1.70949123      11.50811458       14       0.00000000      999 
Si       3.74146301       1.77028190      10.98976254       14       0.00000000      999 
Si       0.01844991       0.05148531      10.68734823       14       0.00000000      999 
Si       5.85313158      -1.48615818      11.82347315       14       0.00000000      999 
Si       2.64069674      -4.17872757      10.75367042       14       0.00000000      999 
Si       8.67875265       5.78091754      13.16909944       14       0.00000000      999 
Si      10.69815562       6.72079003      10.57348425       14       0.00000000      999 
Si       1.41459190       2.17821949      10.55912024       14       0.00000000      999 
Si       3.74807392      -0.80423839      10.56285294       14       0.00000000      999 
Si       1.59018604      -1.80970896      10.71456833       14       0.00000000      999 
Si      10.55676709       4.27762232      12.08870254       14       0.00000000      999 
Si       4.48367616       0.18775431      12.67761803       14       0.00000000      999 
Si       8.28089239       3.39170931      13.17623135       14       0.00000000      999 
61
Lattice="11.582409075835649 0.0 0.0 5.7912045379178245 10.030660496697113 0.0 0.0 0.0 37.82124676165759" Properties=species:S:1:pos:R:3:Z:I:1:magmoms:R:1:tags:I:1 Origin=Mutated New=F Ascendance=1 pbc="T T F" fitness=1892.127506
H      11.58240908       8.90630932       2.86193171        1       0.00000000        2 
H       7.71850805       8.91793037       2.86125925        1       0.00000000        2 
H      15.44631011       8.91793037       2.86125925        1       0.00000000        2 
H       9.66052267       5.57750442       2.86193170        1       0.00000000        2 
H       5.79120454       5.56194977       2.86140756        1       0.00000000        2 
H      13.50429548       5.57750442       2.86193170        1       0.00000000        2 
H       7.71239285       2.23435394       2.86140755        1       0.00000000        2 
H       3.87001622       2.23435394       2.86140755        1       0.00000000        2 
H      11.58240908       2.22545752       2.86125925        1       0.00000000        2 
Si      11.58240908       8.91614266       4.36424935       14       0.00000000        2 
Si       7.72160605       8.91614266       4.36424935       14       0.00000000        2 
Si      15.44321210       8.91614266       4.36424935       14       0.00000000        2 
Si       9.65200756       5.57258916       4.36424935       14       0.00000000        2 
Si       5.79120454       5.57258916       4.36424935       14       0.00000000        2 
Si      13.51281059       5.57258916       4.36424935       14       0.00000000        2 
Si       7.72160605       2.22903567       4.36424935       14       0.00000000        2 
Si       3.86080303       2.22903567       4.36424935       14       0.00000000        2 
Si      11.58240908       2.22903567       4.36424935       14       0.00000000        2 
Si       9.65200756       7.80162483       5.15233247       14       0.00000000        2 
Si       5.79120454       7.80162483       5.15233247       14       0.00000000        2 
Si      13.51281059       7.80162483       5.15233247       14       0.00000000        2 
Si       7.72160605       4.45807133       5.15233247       14       0.00000000        2 
Si       3.86080303       4.45807133       5.15233247       14       0.00000000        2 
Si      11.58240908       4.45807133       5.15233247       14       0.00000000        2 
Si       5.79120454       1.11451783       5.15233247       14       0.00000000        2 
Si       1.93040151       1.11451783       5.15233247       14       0.00000000        2 
Si       9.65200756       1.11451783       5.15233247       14       0.00000000        2 
Si       9.66944673       7.80344540       7.53736751       14       0.00000000        1 
Si       5.75845617       7.81771696       7.58927751       14       0.00000000        1 
Si      13.56865773       7.79051445       7.50569200       14       0.00000000        1 
Si       7.69875253       4.50004743       7.52240472       14       0.00000000        1 
Si       3.83603595       4.47277882       7.47894713       14       0.00000000        1 
Si      11.62471018       4.43508876       7.49507582       14       0.00000000        1 
Si       5.84439298       1.03152774       7.43829436       14       0.00000000        1 
Si       1.89245744       1.19971673       7.50023088       14       0.00000000        1 
Si       9.58375713       1.05184084       7.56029447       14       0.00000000        1 
Si      11.63377772       6.65999678       8.33295467       14       0.00000000        1 
Si       7.72713665       6.75945072       8.38292135       14       0.00000000        1 
Si       3.83040436       6.62154384       8.49228292       14       0.00000000        1 
Si       9.62851767       3.35016044       8.17483000       14       0.00000000        1 
Si       5.74634432       3.26193783       8.22970291       14       0.00000000        1 
Si       1.95234492       3.41237251       8.47758164       14       0.00000000        1 
Si       7.63927472      -0.11138448       8.55449266       14       0.00000000        1 
Si       3.77954943       0.05762247       8.30997473       14       0.00000000        1 
Si      -0.01818288       0.10311536       8.40557688       14       0.00000000        1 
Si       9.16138712       4.04917513      10.39909554       14       0.00000000      999 
Si       6.62020970       4.00217916      11.74939843       14       0.00000000      999 
Si       2.58063400       4.64579426      10.46273111       14       0.00000000      999 
Si       7.79749045       1.95279409      11.76487845       14       0.00000000      999 
Si       5.00836260       1.85150331      10.11870212       14       0.00000000      999 
Si       0.17277380       1.15843364      10.59357196       14       0.00000000      999 
Si       6.56989705      -1.61615577      10.70100351       14       0.00000000      999 
Si       2.09380599      -2.45100926      10.63608710       14       0.00000000      999 
Si       9.60449248       6.07527468      11.58905954       14       0.00000000      999 
Si      11.94647390       5.98262397      10.66202429       14       0.00000000      999 
Si       3.24741531       2.46250082      11.53184513       14       0.00000000      999 
Si       4.78746516      -0.15375030      11.52004454       14       0.00000000      999 
Si       2.47640382       0.04355254      10.50584197       14       0.00000000      999 
Si      11.12405498       3.40737170      11.63910135       14       0.00000000      999 
Si       5.35822638       1.92388489      12.78849862       14       0.00000000      999 
Si       8.96756948       3.97255814      12.96637686       14       0.00000000      999 
