61
Lattice="11.582409075835649 0.0 0.0 5.7912045379178245 10.030660496697113 0.0 0.0 0.0 37.82124676165759" Properties=species:S:1:pos:R:3:Z:I:1:magmoms:R:1:tags:I:1 Origin=Mutated New=T fitness=1896.30768287 pbc="T T F" Ascendance=6
H      11.58240908       8.90630932       2.86193171        1       0.00000000        2 
H       7.71850805       8.91793037       2.86125925        1       0.00000000        2 
H      15.44631011       8.91793037       2.86125925        1       0.00000000        2 
H       9.66052267       5.57750442       2.86193170        1       0.00000000        2 
H       5.79120454       5.56194977       2.86140756        1       0.00000000        2 
H      13.50429548       5.57750442       2.86193170        1       0.00000000        2 
H       7.71239285       2.23435394       2.86140755        1       0.00000000        2 
H       3.87001622       2.23435394       2.86140755        1       0.00000000        2 
H      11.58240908       2.22545752       2.86125925        1       0.00000000        2 
Si      11.58240908       8.91614266       4.36424935       14       0.00000000        2 
Si       7.72160605       8.91614266       4.36424935       14       0.00000000        2 
Si      15.44321210       8.91614266       4.36424935       14       0.00000000        2 
Si       9.65200756       5.57258916       4.36424935       14       0.00000000        2 
Si       5.79120454       5.57258916       4.36424935       14       0.00000000        2 
Si      13.51281059       5.57258916       4.36424935       14       0.00000000        2 
Si       7.72160605       2.22903567       4.36424935       14       0.00000000        2 
Si       3.86080303       2.22903567       4.36424935       14       0.00000000        2 
Si      11.58240908       2.22903567       4.36424935       14       0.00000000        2 
Si       9.65200756       7.80162483       5.15233247       14       0.00000000        2 
Si       5.79120454       7.80162483       5.15233247       14       0.00000000        2 
Si      13.51281059       7.80162483       5.15233247       14       0.00000000        2 
Si       7.72160605       4.45807133       5.15233247       14       0.00000000        2 
Si       3.86080303       4.45807133       5.15233247       14       0.00000000        2 
Si      11.58240908       4.45807133       5.15233247       14       0.00000000        2 
Si       5.79120454       1.11451783       5.15233247       14       0.00000000        2 
Si       1.93040151       1.11451783       5.15233247       14       0.00000000        2 
Si       9.65200756       1.11451783       5.15233247       14       0.00000000        2 
Si       9.73208682       7.79305225       7.45558238       14       0.00000000        1 
Si       5.79780682       7.84551870       7.45343550       14       0.00000000        1 
Si      13.55193868       7.83196026       7.48125795       14       0.00000000        1 
Si       7.72769684       4.47270990       7.51025208       14       0.00000000        1 
Si       3.80170245       4.35455161       7.51677912       14       0.00000000        1 
Si      11.64299707       4.41858683       7.54419028       14       0.00000000        1 
Si       5.75710290       1.13889021       7.55775636       14       0.00000000        1 
Si       1.91369990       1.07294719       7.63200112       14       0.00000000        1 
Si       9.66664692       1.15929767       7.53526557       14       0.00000000        1 
Si      11.63069181       6.64941227       8.40831366       14       0.00000000        1 
Si       7.73537839       6.74103931       8.17514194       14       0.00000000        1 
Si       3.91701901       6.63802589       8.10967975       14       0.00000000        1 
Si       9.64923423       3.39298230       8.38634621       14       0.00000000        1 
Si       5.78414024       3.38718812       8.33036474       14       0.00000000        1 
Si       1.91175423       3.29284457       8.56075066       14       0.00000000        1 
Si       7.73043707       0.04477019       8.29158990       14       0.00000000        1 
Si       3.88493056      -0.10154454       8.41308987       14       0.00000000        1 
Si      -0.08353330      -0.05887992       8.46828659       14       0.00000000        1 
Si      10.32928594       6.27831002      10.51437254       14       0.00000000      999 
Si       9.64734187       8.98853807      10.69509019       14       0.00000000      999 
Si       4.83414674       9.40566715      10.78275039       14       0.00000000      999 
Si       9.73526308       3.90124162      10.75811344       14       0.00000000      999 
Si       7.97897925       6.93491308      10.51372216       14       0.00000000      999 
Si       4.01812080       7.10919354      10.38546968       14       0.00000000      999 
Si       8.01133576      -0.25242445      10.62390099       14       0.00000000      999 
Si       5.79207223       3.27257874      10.70740164       14       0.00000000      999 
Si      11.66772093       9.54352567      11.98628844       14       0.00000000      999 
Si      11.69081421       7.00289888      12.26805602       14       0.00000000      999 
Si       6.30138252       7.64483332      12.05550257       14       0.00000000      999 
Si       7.54534932       4.67570167      11.55716860       14       0.00000000      999 
Si       4.83917461       5.27744667      11.52891586       14       0.00000000      999 
Si      13.24157193       7.42484099      10.53563841       14       0.00000000      999 
Si       6.26417406       5.58659709      13.44181061       14       0.00000000      999 
Si      11.88260970       8.22344513      14.07082270       14       0.00000000      999 
61
Lattice="11.582409075835649 0.0 0.0 5.7912045379178245 10.030660496697113 0.0 0.0 0.0 37.82124676165759" Properties=species:S:1:pos:R:3:Z:I:1:magmoms:R:1:tags:I:1 Origin=Mutated New=F Ascendance=3 pbc="T T F" fitness=1894.69019135
H      11.58240908       8.90630932       2.86193171        1       0.00000000        2 
H       7.71850805       8.91793037       2.86125925        1       0.00000000        2 
H      15.44631011       8.91793037       2.86125925        1       0.00000000        2 
H       9.66052267       5.57750442       2.86193170        1       0.00000000        2 
H       5.79120454       5.56194977       2.86140756        1       0.00000000        2 
H      13.50429548       5.57750442       2.86193170        1       0.00000000        2 
H       7.71239285       2.23435394       2.86140755        1       0.00000000        2 
H       3.87001622       2.23435394       2.86140755        1       0.00000000        2 
H      11.58240908       2.22545752       2.86125925        1       0.00000000        2 
Si      11.58240908       8.91614266       4.36424935       14       0.00000000        2 
Si       7.72160605       8.91614266       4.36424935       14       0.00000000        2 
Si      15.44321210       8.91614266       4.36424935       14       0.00000000        2 
Si       9.65200756       5.57258916       4.36424935       14       0.00000000        2 
Si       5.79120454       5.57258916       4.36424935       14       0.00000000        2 
Si      13.51281059       5.57258916       4.36424935       14       0.00000000        2 
Si       7.72160605       2.22903567       4.36424935       14       0.00000000        2 
Si       3.86080303       2.22903567       4.36424935       14       0.00000000        2 
Si      11.58240908       2.22903567       4.36424935       14       0.00000000        2 
Si       9.65200756       7.80162483       5.15233247       14       0.00000000        2 
Si       5.79120454       7.80162483       5.15233247       14       0.00000000        2 
Si      13.51281059       7.80162483       5.15233247       14       0.00000000        2 
Si       7.72160605       4.45807133       5.15233247       14       0.00000000        2 
Si       3.86080303       4.45807133       5.15233247       14       0.00000000        2 
Si      11.58240908       4.45807133       5.15233247       14       0.00000000        2 
Si       5.79120454       1.11451783       5.15233247       14       0.00000000        2 
Si       1.93040151       1.11451783       5.15233247       14       0.00000000        2 
Si       9.65200756       1.11451783       5.15233247       14       0.00000000        2 
Si       9.67656206       7.57784388       7.48518138       14       0.00000000        1 
Si       5.80568512       7.61194360       7.45698197       14       0.00000000        1 
Si      13.50052531       7.61867932       7.54921678       14       0.00000000        1 
Si       7.69874052       4.22102476       7.41655782       14       0.00000000        1 
Si       3.73735358       4.16140414       7.46953767       14       0.00000000        1 
Si      11.68343038       4.30526201       7.50410754       14       0.00000000        1 
Si       5.69430708       0.81115336       7.45850506       14       0.00000000        1 
Si       1.80453417       0.93506124       7.63893334       14       0.00000000        1 
Si       9.66434537       0.87063395       7.55421091       14       0.00000000        1 
Si      11.55755991       6.54230134       8.52466401       14       0.00000000        1 
Si       7.73258036       6.43403636       8.15512347       14       0.00000000        1 
Si       3.90387847       6.39622562       8.13437391       14       0.00000000        1 
Si       9.68656671       3.19968488       8.18793928       14       0.00000000        1 
Si       5.74461780       3.05843585       8.07182732       14       0.00000000        1 
Si       1.89046469       3.14739632       8.60855063       14       0.00000000        1 
Si       7.66889704      -0.14667475       8.35748892       14       0.00000000        1 
Si       3.73860714      -0.28812502       8.36776473       14       0.00000000        1 
Si      -0.07779600      -0.35013463       8.57627429       14       0.00000000        1 
Si      10.19829276       6.92151795      11.62126785       14       0.00000000      999 
Si       9.54627667       9.14967352      10.77503360       14       0.00000000      999 
Si       5.38591389       8.48324131      10.86282853       14       0.00000000      999 
Si      10.22997544       4.56285561      10.31291154       14       0.00000000      999 
Si       7.76094975       5.77972444      10.40267122       14       0.00000000      999 
Si       4.36941138       6.31207923      10.50114518       14       0.00000000      999 
Si       7.96971569       0.91961997      10.49658227       14       0.00000000      999 
Si       6.07394249       2.51402739      10.36945155       14       0.00000000      999 
Si      11.20134879      10.59849212      11.75152933       14       0.00000000      999 
Si      14.75571753       9.11209897      11.70941465       14       0.00000000      999 
Si       7.47973531       7.58835626      11.99371686       14       0.00000000      999 
Si       9.14926329       4.86515246      12.32447546       14       0.00000000      999 
Si       5.92464870       4.62015092      11.39728465       14       0.00000000      999 
Si      13.89775207       6.85357964      11.86449431       14       0.00000000      999 
Si       7.02855150       5.39256640      13.36189770       14       0.00000000      999 
Si      12.12279163       8.11148798      10.67813303       14       0.00000000      999 
