61
Lattice="11.582409075835649 0.0 0.0 5.7912045379178245 10.030660496697113 0.0 0.0 0.0 37.82124676165759" Properties=species:S:1:pos:R:3:Z:I:1:magmoms:R:1:tags:I:1 New=F pbc="T T F" fitness=1903.13481149
H      11.58240908       8.90630932       2.86193171        1       0.00000000        2 
H       7.71850805       8.91793037       2.86125925        1       0.00000000        2 
H      15.44631011       8.91793037       2.86125925        1       0.00000000        2 
H       9.66052267       5.57750442       2.86193170        1       0.00000000        2 
H       5.79120454       5.56194977       2.86140756        1       0.00000000        2 
H      13.50429548       5.57750442       2.86193170        1       0.00000000        2 
H       7.71239285       2.23435394       2.86140755        1       0.00000000        2 
H       3.87001622       2.23435394       2.86140755        1       0.00000000        2 
H      11.58240908       2.22545752       2.86125925        1       0.00000000        2 
Si      11.58240908       8.91614266       4.36424935       14       0.00000000        2 
Si       7.72160605       8.91614266       4.36424935       14       0.00000000        2 
Si      15.44321210       8.91614266       4.36424935       14       0.00000000        2 
Si       9.65200756       5.57258916       4.36424935       14       0.00000000        2 
Si       5.79120454       5.57258916       4.36424935       14       0.00000000        2 
Si      13.51281059       5.57258916       4.36424935       14       0.00000000        2 
Si       7.72160605       2.22903567       4.36424935       14       0.00000000        2 
Si       3.86080303       2.22903567       4.36424935       14       0.00000000        2 
Si      11.58240908       2.22903567       4.36424935       14       0.00000000        2 
Si       9.65200756       7.80162483       5.15233247       14       0.00000000        2 
Si       5.79120454       7.80162483       5.15233247       14       0.00000000        2 
Si      13.51281059       7.80162483       5.15233247       14       0.00000000        2 
Si       7.72160605       4.45807133       5.15233247       14       0.00000000        2 
Si       3.86080303       4.45807133       5.15233247       14       0.00000000        2 
Si      11.58240908       4.45807133       5.15233247       14       0.00000000        2 
Si       5.79120454       1.11451783       5.15233247       14       0.00000000        2 
Si       1.93040151       1.11451783       5.15233247       14       0.00000000        2 
Si       9.65200756       1.11451783       5.15233247       14       0.00000000        2 
Si       9.65200756       7.80162483       7.51658182       14       0.00000000        1 
Si       5.79120454       7.80162483       7.51658182       14       0.00000000        1 
Si      13.51281059       7.80162483       7.51658182       14       0.00000000        1 
Si       7.72160605       4.45807133       7.51658182       14       0.00000000        1 
Si       3.86080303       4.45807133       7.51658182       14       0.00000000        1 
Si      11.58240908       4.45807133       7.51658182       14       0.00000000        1 
Si       5.79120454       1.11451783       7.51658182       14       0.00000000        1 
Si       1.93040151       1.11451783       7.51658182       14       0.00000000        1 
Si       9.65200756       1.11451783       7.51658182       14       0.00000000        1 
Si      11.58240908       6.68710841       8.07762616       14       0.00000000        1 
Si       7.72806012       6.66124883       8.36510385       14       0.00000000        1 
Si       3.85434896       6.66124883       8.36510385       14       0.00000000        1 
Si       9.63283913       3.36207422       8.36510394       14       0.00000000        1 
Si       5.79120454       3.34355496       8.05802558       14       0.00000000        1 
Si       1.94956995       3.36207422       8.36510394       14       0.00000000        1 
Si       7.69598398       0.00734240       8.36510457       14       0.00000000        1 
Si       3.88642510       0.00734240       8.36510457       14       0.00000000        1 
Si       0.00000000       0.00000186       8.47793445       14       0.00000000        1 
Si      11.58240908       6.68710735      10.35770726       14       0.00000000      999 
Si       8.06929048       6.10272271      10.69652131       14       0.00000000      999 
Si       3.51311859       6.10272271      10.69652131       14       0.00000000      999 
Si       9.31975487       3.93685000      10.69652144       14       0.00000000      999 
Si       5.79120454       3.34355584      10.32874450       14       0.00000000      999 
Si       2.26265421       3.93685000      10.69652144       14       0.00000000      999 
Si       7.04167280      -0.00890822      10.69652299       14       0.00000000      999 
Si       4.54073627      -0.00890822      10.69652299       14       0.00000000      999 
Si       9.78109610       7.72709481      11.54192166       14       0.00000000      999 
Si      13.38372205       7.72709481      11.54192166       14       0.00000000      999 
Si       5.79120454       5.42218689      11.50114475       14       0.00000000      999 
Si       7.59135005       2.30424231      11.50114467       14       0.00000000      999 
Si       3.99105903       2.30424231      11.50114467       14       0.00000000      999 
Si      11.58240908       4.60712806      11.54192181       14       0.00000000      999 
Si       5.79120454       3.34355539      12.90438335       14       0.00000000      999 
Si      11.58240908       6.68710762      12.95003841       14       0.00000000      999 
61
Lattice="11.582409075835649 0.0 0.0 5.7912045379178245 10.030660496697113 0.0 0.0 0.0 37.82124676165759" Properties=species:S:1:pos:R:3:Z:I:1:magmoms:R:1:tags:I:1 Origin=Mutated New=F Ascendance=2 pbc="T T F" fitness=1897.16303214
H      11.58240908       8.90630932       2.86193171        1       0.00000000        2 
H       7.71850805       8.91793037       2.86125925        1       0.00000000        2 
H      15.44631011       8.91793037       2.86125925        1       0.00000000        2 
H       9.66052267       5.57750442       2.86193170        1       0.00000000        2 
H       5.79120454       5.56194977       2.86140756        1       0.00000000        2 
H      13.50429548       5.57750442       2.86193170        1       0.00000000        2 
H       7.71239285       2.23435394       2.86140755        1       0.00000000        2 
H       3.87001622       2.23435394       2.86140755        1       0.00000000        2 
H      11.58240908       2.22545752       2.86125925        1       0.00000000        2 
Si      11.58240908       8.91614266       4.36424935       14       0.00000000        2 
Si       7.72160605       8.91614266       4.36424935       14       0.00000000        2 
Si      15.44321210       8.91614266       4.36424935       14       0.00000000        2 
Si       9.65200756       5.57258916       4.36424935       14       0.00000000        2 
Si       5.79120454       5.57258916       4.36424935       14       0.00000000        2 
Si      13.51281059       5.57258916       4.36424935       14       0.00000000        2 
Si       7.72160605       2.22903567       4.36424935       14       0.00000000        2 
Si       3.86080303       2.22903567       4.36424935       14       0.00000000        2 
Si      11.58240908       2.22903567       4.36424935       14       0.00000000        2 
Si       9.65200756       7.80162483       5.15233247       14       0.00000000        2 
Si       5.79120454       7.80162483       5.15233247       14       0.00000000        2 
Si      13.51281059       7.80162483       5.15233247       14       0.00000000        2 
Si       7.72160605       4.45807133       5.15233247       14       0.00000000        2 
Si       3.86080303       4.45807133       5.15233247       14       0.00000000        2 
Si      11.58240908       4.45807133       5.15233247       14       0.00000000        2 
Si       5.79120454       1.11451783       5.15233247       14       0.00000000        2 
Si       1.93040151       1.11451783       5.15233247       14       0.00000000        2 
Si       9.65200756       1.11451783       5.15233247       14       0.00000000        2 
Si       9.66776284       7.75452022       7.50261134       14       0.00000000        1 
Si       5.83031994       7.70846484       7.43903331       14       0.00000000        1 
Si      13.58294272       7.69293474       7.50755371       14       0.00000000        1 
Si       7.71806075       4.28673508       7.51112802       14       0.00000000        1 
Si       3.79970142       4.26660462       7.46599142       14       0.00000000        1 
Si      11.58508288       4.25253207       7.57300032       14       0.00000000        1 
Si       5.73802277       1.00095130       7.50807914       14       0.00000000        1 
Si       1.92711491       1.09042765       7.57248152       14       0.00000000        1 
Si       9.63600892       0.98346457       7.50944535       14       0.00000000        1 
Si      11.61075285       6.58115978       8.16012112       14       0.00000000        1 
Si       7.72904090       6.53070175       8.22554801       14       0.00000000        1 
Si       3.95075276       6.50921278       8.23350221       14       0.00000000        1 
Si       9.58017320       3.14483198       8.45006538       14       0.00000000        1 
Si       5.74787021       3.23604419       8.30839633       14       0.00000000        1 
Si       1.93898188       3.25513670       8.58977811       14       0.00000000        1 
Si       7.68081790      -0.11549420       8.29399869       14       0.00000000        1 
Si       3.80199724      -0.06866381       8.54915209       14       0.00000000        1 
Si       0.00425245      -0.14540331       8.34792589       14       0.00000000        1 
Si      11.50102428       7.02617092      10.54621538       14       0.00000000      999 
Si       8.37313714       8.89969803      10.55354435       14       0.00000000      999 
Si       5.79809084       9.01929584      10.63802385       14       0.00000000      999 
Si       9.49855184       6.96898592      11.71509465       14       0.00000000      999 
Si       7.41121547       3.95282263      11.36642541       14       0.00000000      999 
Si       4.64122461       5.81532238      10.50452591       14       0.00000000      999 
Si       7.36300466       0.40023945      10.59568393       14       0.00000000      999 
Si       4.97302782       0.92732644      10.72038851       14       0.00000000      999 
Si      10.23332374       9.26261149      12.46952994       14       0.00000000      999 
Si      14.97089850       7.88459946      10.59232630       14       0.00000000      999 
Si       6.95236468       6.66894361      10.47397423       14       0.00000000      999 
Si       8.97150141       2.32589972      10.76566076       14       0.00000000      999 
Si       5.24541507       3.45405198      10.61610544       14       0.00000000      999 
Si      13.45487324       6.43186244      11.90854610       14       0.00000000      999 
Si       7.57086507       5.90357639      12.68721983       14       0.00000000      999 
Si      12.66170453       8.67207063      12.17989492       14       0.00000000      999 
61
Lattice="11.582409075835649 0.0 0.0 5.7912045379178245 10.030660496697113 0.0 0.0 0.0 37.82124676165759" Properties=species:S:1:pos:R:3:Z:I:1:magmoms:R:1:tags:I:1 Origin=Mutated New=F Ascendance=1 pbc="T T F" fitness=1894.18607638
H      11.58240908       8.90630932       2.86193171        1       0.00000000        2 
H       7.71850805       8.91793037       2.86125925        1       0.00000000        2 
H      15.44631011       8.91793037       2.86125925        1       0.00000000        2 
H       9.66052267       5.57750442       2.86193170        1       0.00000000        2 
H       5.79120454       5.56194977       2.86140756        1       0.00000000        2 
H      13.50429548       5.57750442       2.86193170        1       0.00000000        2 
H       7.71239285       2.23435394       2.86140755        1       0.00000000        2 
H       3.87001622       2.23435394       2.86140755        1       0.00000000        2 
H      11.58240908       2.22545752       2.86125925        1       0.00000000        2 
Si      11.58240908       8.91614266       4.36424935       14       0.00000000        2 
Si       7.72160605       8.91614266       4.36424935       14       0.00000000        2 
Si      15.44321210       8.91614266       4.36424935       14       0.00000000        2 
Si       9.65200756       5.57258916       4.36424935       14       0.00000000        2 
Si       5.79120454       5.57258916       4.36424935       14       0.00000000        2 
Si      13.51281059       5.57258916       4.36424935       14       0.00000000        2 
Si       7.72160605       2.22903567       4.36424935       14       0.00000000        2 
Si       3.86080303       2.22903567       4.36424935       14       0.00000000        2 
Si      11.58240908       2.22903567       4.36424935       14       0.00000000        2 
Si       9.65200756       7.80162483       5.15233247       14       0.00000000        2 
Si       5.79120454       7.80162483       5.15233247       14       0.00000000        2 
Si      13.51281059       7.80162483       5.15233247       14       0.00000000        2 
Si       7.72160605       4.45807133       5.15233247       14       0.00000000        2 
Si       3.86080303       4.45807133       5.15233247       14       0.00000000        2 
Si      11.58240908       4.45807133       5.15233247       14       0.00000000        2 
Si       5.79120454       1.11451783       5.15233247       14       0.00000000        2 
Si       1.93040151       1.11451783       5.15233247       14       0.00000000        2 
Si       9.65200756       1.11451783       5.15233247       14       0.00000000        2 
Si       9.59552180       7.87031515       7.49820630       14       0.00000000        1 
Si       5.71930694       7.77663515       7.46557900       14       0.00000000        1 
Si      13.50795990       7.82256562       7.65059332       14       0.00000000        1 
Si       7.82664707       4.39706492       7.45011997       14       0.00000000        1 
Si       3.83210959       4.33508492       7.55834978       14       0.00000000        1 
Si      11.64432780       4.38698384       7.59136585       14       0.00000000        1 
Si       5.70996109       1.12096270       7.58273208       14       0.00000000        1 
Si       1.78915649       1.10785323       7.72703449       14       0.00000000        1 
Si       9.72171614       1.07472580       7.52813849       14       0.00000000        1 
Si      11.40280713       6.63566235       8.38101856       14       0.00000000        1 
Si       7.65590454       6.65264561       8.15390745       14       0.00000000        1 
Si       3.90225476       6.55501043       8.36220427       14       0.00000000        1 
Si       9.70212473       3.27197900       8.34721328       14       0.00000000        1 
Si       5.87986653       3.38746529       8.34273366       14       0.00000000        1 
Si       1.92977030       3.41243042       8.74979357       14       0.00000000        1 
Si       7.71338252       0.11374516       8.30586944       14       0.00000000        1 
Si       3.75296550      -0.00267112       8.52884122       14       0.00000000        1 
Si      -0.13463022      -0.20176257       8.62255826       14       0.00000000        1 
Si      12.73800006       7.51453704      10.37822251       14       0.00000000      999 
Si       8.71405257       9.09270786      10.63818492       14       0.00000000      999 
Si       5.21905002       8.45562181      10.83501420       14       0.00000000      999 
Si      10.22867985       6.45968226      10.68250524       14       0.00000000      999 
Si       6.96216085       4.09439235      10.43176520       14       0.00000000      999 
Si       4.23103006       6.14296883      10.79281433       14       0.00000000      999 
Si       7.70817770       0.86765659      10.57431973       14       0.00000000      999 
Si       5.30129567       1.01262150      10.72082836       14       0.00000000      999 
Si      10.91082558       8.70977946      11.56375204       14       0.00000000      999 
Si      14.38154331       8.87641202      11.48760983       14       0.00000000      999 
Si       7.66621687       6.85762208      10.51203193       14       0.00000000      999 
Si       9.04614713       2.90369651      10.57710217       14       0.00000000      999 
Si       5.00490531       3.93381533      11.68810411       14       0.00000000      999 
Si      13.56228905       5.34371148      11.04958969       14       0.00000000      999 
Si       6.32596967       5.88491572      12.40110492       14       0.00000000      999 
Si      12.57508023       9.49648150      13.04444745       14       0.00000000      999 
61
Lattice="11.582409075835649 0.0 0.0 5.7912045379178245 10.030660496697113 0.0 0.0 0.0 37.82124676165759" Properties=species:S:1:pos:R:3:Z:I:1:magmoms:R:1:tags:I:1 Origin=Mutated New=F Ascendance=1 pbc="T T F" fitness=1893.57891744
H      11.58240908       8.90630932       2.86193171        1       0.00000000        2 
H       7.71850805       8.91793037       2.86125925        1       0.00000000        2 
H      15.44631011       8.91793037       2.86125925        1       0.00000000        2 
H       9.66052267       5.57750442       2.86193170        1       0.00000000        2 
H       5.79120454       5.56194977       2.86140756        1       0.00000000        2 
H      13.50429548       5.57750442       2.86193170        1       0.00000000        2 
H       7.71239285       2.23435394       2.86140755        1       0.00000000        2 
H       3.87001622       2.23435394       2.86140755        1       0.00000000        2 
H      11.58240908       2.22545752       2.86125925        1       0.00000000        2 
Si      11.58240908       8.91614266       4.36424935       14       0.00000000        2 
Si       7.72160605       8.91614266       4.36424935       14       0.00000000        2 
Si      15.44321210       8.91614266       4.36424935       14       0.00000000        2 
Si       9.65200756       5.57258916       4.36424935       14       0.00000000        2 
Si       5.79120454       5.57258916       4.36424935       14       0.00000000        2 
Si      13.51281059       5.57258916       4.36424935       14       0.00000000        2 
Si       7.72160605       2.22903567       4.36424935       14       0.00000000        2 
Si       3.86080303       2.22903567       4.36424935       14       0.00000000        2 
Si      11.58240908       2.22903567       4.36424935       14       0.00000000        2 
Si       9.65200756       7.80162483       5.15233247       14       0.00000000        2 
Si       5.79120454       7.80162483       5.15233247       14       0.00000000        2 
Si      13.51281059       7.80162483       5.15233247       14       0.00000000        2 
Si       7.72160605       4.45807133       5.15233247       14       0.00000000        2 
Si       3.86080303       4.45807133       5.15233247       14       0.00000000        2 
Si      11.58240908       4.45807133       5.15233247       14       0.00000000        2 
Si       5.79120454       1.11451783       5.15233247       14       0.00000000        2 
Si       1.93040151       1.11451783       5.15233247       14       0.00000000        2 
Si       9.65200756       1.11451783       5.15233247       14       0.00000000        2 
Si       9.75877043       7.82984430       7.53032947       14       0.00000000        1 
Si       5.80474956       7.96384628       7.48666237       14       0.00000000        1 
Si      13.51529367       7.80363929       7.51571622       14       0.00000000        1 
Si       7.74184371       4.42307438       7.57010143       14       0.00000000        1 
Si       3.90659346       4.44397710       7.60031163       14       0.00000000        1 
Si      11.68479558       4.36739106       7.67788541       14       0.00000000        1 
Si       5.85451511       1.10105148       7.44443563       14       0.00000000        1 
Si       1.91669833       1.22724990       7.68037381       14       0.00000000        1 
Si       9.59086675       1.06308176       7.62577638       14       0.00000000        1 
Si      11.65541817       6.64789446       8.40439716       14       0.00000000        1 
Si       7.70703779       6.73105882       8.21300944       14       0.00000000        1 
Si       3.92471463       6.75656818       8.26832538       14       0.00000000        1 
Si       9.63959790       3.31876462       8.44145493       14       0.00000000        1 
Si       5.82574331       3.24548035       8.39449689       14       0.00000000        1 
Si       2.07186700       3.49495235       8.81208748       14       0.00000000        1 
Si       7.62516909      -0.09946310       8.63140668       14       0.00000000        1 
Si       3.93681756       0.04127249       8.31771520       14       0.00000000        1 
Si      -0.00707204       0.05664493       8.59581848       14       0.00000000        1 
Si      12.39838268       7.68764231      10.56596016       14       0.00000000      999 
Si       8.85694842       7.29104837      10.36631472       14       0.00000000      999 
Si       3.99501237       7.07845653      10.54934087       14       0.00000000      999 
Si      10.34025312       5.36584444      10.65297565       14       0.00000000      999 
Si       7.19503153       4.90622469      11.02158900       14       0.00000000      999 
Si       2.76477235       4.88758996      11.00543118       14       0.00000000      999 
Si       8.59071420       2.72483873      10.52328690       14       0.00000000      999 
Si       6.07387580       2.35155627      10.57108169       14       0.00000000      999 
Si      11.31719762       9.91976805      10.19069016       14       0.00000000      999 
Si      14.50724457       9.11926827      11.16581787       14       0.00000000      999 
Si       6.51143663       7.10139619      10.63311773       14       0.00000000      999 
Si       9.09207901       4.03650034      12.40369399       14       0.00000000      999 
Si       4.90854177       3.83944544      11.94920734       14       0.00000000      999 
Si      12.28618074       5.69738312      12.23769334       14       0.00000000      999 
Si       6.80899999       4.34536891      13.42620053       14       0.00000000      999 
Si      13.05199387       7.94131780      12.86532102       14       0.00000000      999 
61
Lattice="11.582409075835649 0.0 0.0 5.7912045379178245 10.030660496697113 0.0 0.0 0.0 37.82124676165759" Properties=species:S:1:pos:R:3:Z:I:1:magmoms:R:1:tags:I:1 Origin=Mutated New=T Ascendance=1 pbc="T T F" fitness=1893.11318287
H      11.58240908       8.90630932       2.86193171        1       0.00000000        2 
H       7.71850805       8.91793037       2.86125925        1       0.00000000        2 
H      15.44631011       8.91793037       2.86125925        1       0.00000000        2 
H       9.66052267       5.57750442       2.86193170        1       0.00000000        2 
H       5.79120454       5.56194977       2.86140756        1       0.00000000        2 
H      13.50429548       5.57750442       2.86193170        1       0.00000000        2 
H       7.71239285       2.23435394       2.86140755        1       0.00000000        2 
H       3.87001622       2.23435394       2.86140755        1       0.00000000        2 
H      11.58240908       2.22545752       2.86125925        1       0.00000000        2 
Si      11.58240908       8.91614266       4.36424935       14       0.00000000        2 
Si       7.72160605       8.91614266       4.36424935       14       0.00000000        2 
Si      15.44321210       8.91614266       4.36424935       14       0.00000000        2 
Si       9.65200756       5.57258916       4.36424935       14       0.00000000        2 
Si       5.79120454       5.57258916       4.36424935       14       0.00000000        2 
Si      13.51281059       5.57258916       4.36424935       14       0.00000000        2 
Si       7.72160605       2.22903567       4.36424935       14       0.00000000        2 
Si       3.86080303       2.22903567       4.36424935       14       0.00000000        2 
Si      11.58240908       2.22903567       4.36424935       14       0.00000000        2 
Si       9.65200756       7.80162483       5.15233247       14       0.00000000        2 
Si       5.79120454       7.80162483       5.15233247       14       0.00000000        2 
Si      13.51281059       7.80162483       5.15233247       14       0.00000000        2 
Si       7.72160605       4.45807133       5.15233247       14       0.00000000        2 
Si       3.86080303       4.45807133       5.15233247       14       0.00000000        2 
Si      11.58240908       4.45807133       5.15233247       14       0.00000000        2 
Si       5.79120454       1.11451783       5.15233247       14       0.00000000        2 
Si       1.93040151       1.11451783       5.15233247       14       0.00000000        2 
Si       9.65200756       1.11451783       5.15233247       14       0.00000000        2 
Si       9.70169761       7.92907789       7.48179740       14       0.00000000        1 
Si       5.77160883       7.89545953       7.54070003       14       0.00000000        1 
Si      13.67474665       7.79062740       7.47619119       14       0.00000000        1 
Si       7.77418920       4.45119130       7.47084886       14       0.00000000        1 
Si       3.95973458       4.31257969       7.42504468       14       0.00000000        1 
Si      11.70916928       4.46696503       7.55381757       14       0.00000000        1 
Si       5.82848280       0.99106999       7.46337979       14       0.00000000        1 
Si       1.99365356       1.07764085       7.69271537       14       0.00000000        1 
Si       9.77938082       1.16760945       7.59114647       14       0.00000000        1 
Si      11.66447167       6.75779381       8.08845326       14       0.00000000        1 
Si       7.74865032       6.73522419       8.12020438       14       0.00000000        1 
Si       3.95646199       6.48378115       8.35126940       14       0.00000000        1 
Si       9.71289460       3.48858582       8.40279203       14       0.00000000        1 
Si       5.89953247       3.23940303       8.32192472       14       0.00000000        1 
Si       2.07052475       3.40400488       8.49553346       14       0.00000000        1 
Si       7.80849573       0.01749441       8.30262063       14       0.00000000        1 
Si       3.98666069       0.03129624       8.68263784       14       0.00000000        1 
Si       0.03795322       0.01908372       8.64534181       14       0.00000000        1 
Si      12.20515651       7.80692212      10.12505623       14       0.00000000      999 
Si       9.99305719       8.46690892      10.90710693       14       0.00000000      999 
Si       6.06483921       6.89078098      11.68415095       14       0.00000000      999 
Si      10.75680163       6.22267057      11.93550208       14       0.00000000      999 
Si       5.48354642       5.24782087      10.02335770       14       0.00000000      999 
Si       2.92893932       4.90102236      10.45850723       14       0.00000000      999 
Si       7.96392374       2.98554674      12.00196997       14       0.00000000      999 
Si       5.55882497       1.83893353      10.52440389       14       0.00000000      999 
Si      11.36538190       9.99400757      12.34007982       14       0.00000000      999 
Si      13.30218336      10.09758847      10.77187707       14       0.00000000      999 
Si       8.16161303       6.67162011      10.44365326       14       0.00000000      999 
Si       9.32129350       4.55711338      10.67334857       14       0.00000000      999 
Si       4.86258120       3.85826009      11.86876892       14       0.00000000      999 
Si      13.16317700       6.38063123      11.81663751       14       0.00000000      999 
Si       6.91256521       4.94782230      12.75380852       14       0.00000000      999 
Si      12.74459896       8.17978987      13.34214147       14       0.00000000      999 
61
Lattice="11.582409075835649 0.0 0.0 5.7912045379178245 10.030660496697113 0.0 0.0 0.0 37.82124676165759" Properties=species:S:1:pos:R:3:Z:I:1:magmoms:R:1:tags:I:1 Origin=Mutated New=T Ascendance=4 pbc="T T F" fitness=1892.78503905
H      11.58240908       8.90630932       2.86193171        1       0.00000000        2 
H       7.71850805       8.91793037       2.86125925        1       0.00000000        2 
H      15.44631011       8.91793037       2.86125925        1       0.00000000        2 
H       9.66052267       5.57750442       2.86193170        1       0.00000000        2 
H       5.79120454       5.56194977       2.86140756        1       0.00000000        2 
H      13.50429548       5.57750442       2.86193170        1       0.00000000        2 
H       7.71239285       2.23435394       2.86140755        1       0.00000000        2 
H       3.87001622       2.23435394       2.86140755        1       0.00000000        2 
H      11.58240908       2.22545752       2.86125925        1       0.00000000        2 
Si      11.58240908       8.91614266       4.36424935       14       0.00000000        2 
Si       7.72160605       8.91614266       4.36424935       14       0.00000000        2 
Si      15.44321210       8.91614266       4.36424935       14       0.00000000        2 
Si       9.65200756       5.57258916       4.36424935       14       0.00000000        2 
Si       5.79120454       5.57258916       4.36424935       14       0.00000000        2 
Si      13.51281059       5.57258916       4.36424935       14       0.00000000        2 
Si       7.72160605       2.22903567       4.36424935       14       0.00000000        2 
Si       3.86080303       2.22903567       4.36424935       14       0.00000000        2 
Si      11.58240908       2.22903567       4.36424935       14       0.00000000        2 
Si       9.65200756       7.80162483       5.15233247       14       0.00000000        2 
Si       5.79120454       7.80162483       5.15233247       14       0.00000000        2 
Si      13.51281059       7.80162483       5.15233247       14       0.00000000        2 
Si       7.72160605       4.45807133       5.15233247       14       0.00000000        2 
Si       3.86080303       4.45807133       5.15233247       14       0.00000000        2 
Si      11.58240908       4.45807133       5.15233247       14       0.00000000        2 
Si       5.79120454       1.11451783       5.15233247       14       0.00000000        2 
Si       1.93040151       1.11451783       5.15233247       14       0.00000000        2 
Si       9.65200756       1.11451783       5.15233247       14       0.00000000        2 
Si       9.65608488       7.94050238       7.55228215       14       0.00000000        1 
Si       5.77397555       8.07502695       7.39730263       14       0.00000000        1 
Si      13.56234563       7.94684037       7.46113202       14       0.00000000        1 
Si       7.61234490       4.48401255       7.47673717       14       0.00000000        1 
Si       3.87674423       4.52543282       7.48502182       14       0.00000000        1 
Si      11.61035097       4.46375721       7.58321560       14       0.00000000        1 
Si       5.84703255       1.14255139       7.47816474       14       0.00000000        1 
Si       1.96912631       1.18085612       7.67921424       14       0.00000000        1 
Si       9.69942676       1.17037546       7.61177521       14       0.00000000        1 
Si      11.63763967       6.76666915       8.30725259       14       0.00000000        1 
Si       7.63630371       6.77549580       8.19024482       14       0.00000000        1 
Si       3.94389142       6.80880755       8.10140736       14       0.00000000        1 
Si       9.50255697       3.45975927       8.46469466       14       0.00000000        1 
Si       5.73207328       3.33425382       8.30618543       14       0.00000000        1 
Si       2.03662102       3.51853204       8.54962408       14       0.00000000        1 
Si       7.73927249       0.04294250       8.56760444       14       0.00000000        1 
Si       4.01438521       0.08501250       8.54213341       14       0.00000000        1 
Si       0.02710664       0.07735709       8.65414868       14       0.00000000        1 
Si      12.65246125       7.25570443      10.41736002       14       0.00000000      999 
Si       9.64867526       5.82545863       9.93655557       14       0.00000000      999 
Si       4.11828635       7.08763121      10.42490359       14       0.00000000      999 
Si       8.85812777       7.22109519      11.63404300       14       0.00000000      999 
Si       6.94803333       5.14892699      11.19097712       14       0.00000000      999 
Si       2.88770054       5.03637975      10.90468512       14       0.00000000      999 
Si       8.42455487       3.11139812      10.73612984       14       0.00000000      999 
Si       5.99411221       2.60315455      10.53149152       14       0.00000000      999 
Si      11.57377207       9.98419610      10.49928245       14       0.00000000      999 
Si      14.50470853       9.26197551      10.79477525       14       0.00000000      999 
Si       6.76416099       7.39025774      10.40983093       14       0.00000000      999 
Si       9.10937363       4.87682595      12.44812843       14       0.00000000      999 
Si       4.86966633       3.98149679      12.16461328       14       0.00000000      999 
Si      12.56041803       5.93177550      12.35599045       14       0.00000000      999 
Si       6.88077239       4.46964120      13.60773892       14       0.00000000      999 
Si      12.77363332       8.50218697      12.45696299       14       0.00000000      999 
61
Lattice="11.582409075835649 0.0 0.0 5.7912045379178245 10.030660496697113 0.0 0.0 0.0 37.82124676165759" Properties=species:S:1:pos:R:3:Z:I:1:magmoms:R:1:tags:I:1 Origin=Mutated New=T Ascendance=2 pbc="T T F" fitness=1870.98269359
H      11.58240908       8.90630932       2.86193171        1       0.00000000        2 
H       7.71850805       8.91793037       2.86125925        1       0.00000000        2 
H      15.44631011       8.91793037       2.86125925        1       0.00000000        2 
H       9.66052267       5.57750442       2.86193170        1       0.00000000        2 
H       5.79120454       5.56194977       2.86140756        1       0.00000000        2 
H      13.50429548       5.57750442       2.86193170        1       0.00000000        2 
H       7.71239285       2.23435394       2.86140755        1       0.00000000        2 
H       3.87001622       2.23435394       2.86140755        1       0.00000000        2 
H      11.58240908       2.22545752       2.86125925        1       0.00000000        2 
Si      11.58240908       8.91614266       4.36424935       14       0.00000000        2 
Si       7.72160605       8.91614266       4.36424935       14       0.00000000        2 
Si      15.44321210       8.91614266       4.36424935       14       0.00000000        2 
Si       9.65200756       5.57258916       4.36424935       14       0.00000000        2 
Si       5.79120454       5.57258916       4.36424935       14       0.00000000        2 
Si      13.51281059       5.57258916       4.36424935       14       0.00000000        2 
Si       7.72160605       2.22903567       4.36424935       14       0.00000000        2 
Si       3.86080303       2.22903567       4.36424935       14       0.00000000        2 
Si      11.58240908       2.22903567       4.36424935       14       0.00000000        2 
Si       9.65200756       7.80162483       5.15233247       14       0.00000000        2 
Si       5.79120454       7.80162483       5.15233247       14       0.00000000        2 
Si      13.51281059       7.80162483       5.15233247       14       0.00000000        2 
Si       7.72160605       4.45807133       5.15233247       14       0.00000000        2 
Si       3.86080303       4.45807133       5.15233247       14       0.00000000        2 
Si      11.58240908       4.45807133       5.15233247       14       0.00000000        2 
Si       5.79120454       1.11451783       5.15233247       14       0.00000000        2 
Si       1.93040151       1.11451783       5.15233247       14       0.00000000        2 
Si       9.65200756       1.11451783       5.15233247       14       0.00000000        2 
Si       9.55851840       7.59907902       7.55329477       14       0.00000000        1 
Si       5.68188616       7.77282732       7.52293385       14       0.00000000        1 
Si      13.48876003       7.75075602       7.53356697       14       0.00000000        1 
Si       7.66157725       4.50151219       7.51364682       14       0.00000000        1 
Si       3.76194882       4.29727889       7.49007346       14       0.00000000        1 
Si      11.56526289       4.39593368       7.61482814       14       0.00000000        1 
Si       5.96717333       1.09665965       7.53705246       14       0.00000000        1 
Si       1.76298814       1.18856564       7.49336399       14       0.00000000        1 
Si       9.65580524       1.14272531       7.67225134       14       0.00000000        1 
Si      11.57856589       6.65847033       8.37667797       14       0.00000000        1 
Si       7.52546395       6.69406510       8.59197914       14       0.00000000        1 
Si       3.79395476       6.52464597       8.27261580       14       0.00000000        1 
Si       9.52406566       3.41381175       8.50120139       14       0.00000000        1 
Si       5.76506981       3.29622776       8.32174665       14       0.00000000        1 
Si       1.88563739       3.29544539       8.61425540       14       0.00000000        1 
Si       7.77845063      -0.10859266       8.46051855       14       0.00000000        1 
Si       3.50121424      -0.16448005       8.50710296       14       0.00000000        1 
Si       0.01588915      -0.08036732       8.46879735       14       0.00000000        1 
Si      11.47593044       6.98150400      10.76088474       14       0.00000000      999 
Si       7.40484080       8.99546622      10.31047705       14       0.00000000      999 
Si       5.60062213       7.64225362      11.48421217       14       0.00000000      999 
Si       9.20776488       7.39241276      11.13901767       14       0.00000000      999 
Si       8.67147116       3.60803547      10.80134686       14       0.00000000      999 
Si       4.04680197       5.70154582      10.53629165       14       0.00000000      999 
Si       7.12751405      -0.20104593      10.83199418       14       0.00000000      999 
Si       4.30468442      -0.03216764       8.96310957       14       0.00000000      999 
Si      10.52058495       9.54316139      11.36921016       14       0.00000000      999 
Si      16.34715690       7.60961585      13.79862803       14       0.00000000      999 
Si       6.56203011       5.55394690      10.64840296       14       0.00000000      999 
Si       7.34691306       1.96481789      11.97279538       14       0.00000000      999 
Si       5.79545025       3.26943021      10.73329185       14       0.00000000      999 
Si      14.79013780       6.46010055      12.60786544       14       0.00000000      999 
Si       8.22111628       5.56889163      12.31838394       14       0.00000000      999 
Si      13.01095371       7.93956656      12.35803877       14       0.00000000      999 
