61
Lattice="11.582409075835649 0.0 0.0 5.7912045379178245 10.030660496697113 0.0 0.0 0.0 37.82124676165759" Properties=species:S:1:pos:R:3:Z:I:1:magmoms:R:1:tags:I:1 Origin=Mutated New=T fitness=1902.24503369 pbc="T T F" Ascendance=2
H      11.58240908       8.90630932       2.86193171        1       0.00000000        2 
H       7.71850805       8.91793037       2.86125925        1       0.00000000        2 
H      15.44631011       8.91793037       2.86125925        1       0.00000000        2 
H       9.66052267       5.57750442       2.86193170        1       0.00000000        2 
H       5.79120454       5.56194977       2.86140756        1       0.00000000        2 
H      13.50429548       5.57750442       2.86193170        1       0.00000000        2 
H       7.71239285       2.23435394       2.86140755        1       0.00000000        2 
H       3.87001622       2.23435394       2.86140755        1       0.00000000        2 
H      11.58240908       2.22545752       2.86125925        1       0.00000000        2 
Si      11.58240908       8.91614266       4.36424935       14       0.00000000        2 
Si       7.72160605       8.91614266       4.36424935       14       0.00000000        2 
Si      15.44321210       8.91614266       4.36424935       14       0.00000000        2 
Si       9.65200756       5.57258916       4.36424935       14       0.00000000        2 
Si       5.79120454       5.57258916       4.36424935       14       0.00000000        2 
Si      13.51281059       5.57258916       4.36424935       14       0.00000000        2 
Si       7.72160605       2.22903567       4.36424935       14       0.00000000        2 
Si       3.86080303       2.22903567       4.36424935       14       0.00000000        2 
Si      11.58240908       2.22903567       4.36424935       14       0.00000000        2 
Si       9.65200756       7.80162483       5.15233247       14       0.00000000        2 
Si       5.79120454       7.80162483       5.15233247       14       0.00000000        2 
Si      13.51281059       7.80162483       5.15233247       14       0.00000000        2 
Si       7.72160605       4.45807133       5.15233247       14       0.00000000        2 
Si       3.86080303       4.45807133       5.15233247       14       0.00000000        2 
Si      11.58240908       4.45807133       5.15233247       14       0.00000000        2 
Si       5.79120454       1.11451783       5.15233247       14       0.00000000        2 
Si       1.93040151       1.11451783       5.15233247       14       0.00000000        2 
Si       9.65200756       1.11451783       5.15233247       14       0.00000000        2 
Si       9.49806912       7.63607069       7.48974357       14       0.00000000        1 
Si       5.67112589       7.70871101       7.61537367       14       0.00000000        1 
Si      13.45935620       7.67309753       7.52328981       14       0.00000000        1 
Si       7.66168854       4.31826351       7.45342768       14       0.00000000        1 
Si       3.73289552       4.33487851       7.50023178       14       0.00000000        1 
Si      11.48268583       4.25756259       7.50615871       14       0.00000000        1 
Si       5.71916184       0.91560683       7.47083363       14       0.00000000        1 
Si       1.80542828       0.98411621       7.57984842       14       0.00000000        1 
Si       9.57721440       0.93470955       7.59470367       14       0.00000000        1 
Si      11.47561956       6.52272181       8.07502572       14       0.00000000        1 
Si       7.58576120       6.47827985       8.36875456       14       0.00000000        1 
Si       3.73268162       6.50232197       8.44630865       14       0.00000000        1 
Si       9.51518138       3.17703367       8.35095058       14       0.00000000        1 
Si       5.69964514       3.18477535       8.08804339       14       0.00000000        1 
Si       1.82522179       3.21509022       8.35006920       14       0.00000000        1 
Si       7.58411879      -0.17776218       8.45352294       14       0.00000000        1 
Si       3.78268576      -0.18339892       8.32428291       14       0.00000000        1 
Si      -0.08568065      -0.11874460       8.58135942       14       0.00000000        1 
Si      11.34855829       6.29458015      10.36575214       14       0.00000000      999 
Si       7.79391612       5.70336358      10.65643651       14       0.00000000      999 
Si       3.25854291       5.80928453      10.73776975       14       0.00000000      999 
Si       9.00511741       3.54404107      10.66112527       14       0.00000000      999 
Si       5.64517782       2.87725192      10.31473263       14       0.00000000      999 
Si       1.91500854       3.68449173      10.63300073       14       0.00000000      999 
Si       6.82554964      -0.40111877      10.77080261       14       0.00000000      999 
Si       4.33159276      -0.54952955      10.66272934       14       0.00000000      999 
Si       9.46886159       7.22454226      11.58234394       14       0.00000000      999 
Si      13.06439553       7.34237346      11.64046669       14       0.00000000      999 
Si       5.53729649       5.06109391      11.53286774       14       0.00000000      999 
Si       7.33813197       1.86684283      11.55424247       14       0.00000000      999 
Si       3.65884398       1.83525082      11.12244650       14       0.00000000      999 
Si      11.21064404       4.20861423      11.54222058       14       0.00000000      999 
Si       5.29806873       2.92134942      12.76008337       14       0.00000000      999 
Si      11.14903414       6.20638996      13.03128075       14       0.00000000      999 
61
Lattice="11.582409075835649 0.0 0.0 5.7912045379178245 10.030660496697113 0.0 0.0 0.0 37.82124676165759" Properties=species:S:1:pos:R:3:Z:I:1:magmoms:R:1:tags:I:1 New=F pbc="T T F" fitness=1903.13481149
H      11.58240908       8.90630932       2.86193171        1       0.00000000        2 
H       7.71850805       8.91793037       2.86125925        1       0.00000000        2 
H      15.44631011       8.91793037       2.86125925        1       0.00000000        2 
H       9.66052267       5.57750442       2.86193170        1       0.00000000        2 
H       5.79120454       5.56194977       2.86140756        1       0.00000000        2 
H      13.50429548       5.57750442       2.86193170        1       0.00000000        2 
H       7.71239285       2.23435394       2.86140755        1       0.00000000        2 
H       3.87001622       2.23435394       2.86140755        1       0.00000000        2 
H      11.58240908       2.22545752       2.86125925        1       0.00000000        2 
Si      11.58240908       8.91614266       4.36424935       14       0.00000000        2 
Si       7.72160605       8.91614266       4.36424935       14       0.00000000        2 
Si      15.44321210       8.91614266       4.36424935       14       0.00000000        2 
Si       9.65200756       5.57258916       4.36424935       14       0.00000000        2 
Si       5.79120454       5.57258916       4.36424935       14       0.00000000        2 
Si      13.51281059       5.57258916       4.36424935       14       0.00000000        2 
Si       7.72160605       2.22903567       4.36424935       14       0.00000000        2 
Si       3.86080303       2.22903567       4.36424935       14       0.00000000        2 
Si      11.58240908       2.22903567       4.36424935       14       0.00000000        2 
Si       9.65200756       7.80162483       5.15233247       14       0.00000000        2 
Si       5.79120454       7.80162483       5.15233247       14       0.00000000        2 
Si      13.51281059       7.80162483       5.15233247       14       0.00000000        2 
Si       7.72160605       4.45807133       5.15233247       14       0.00000000        2 
Si       3.86080303       4.45807133       5.15233247       14       0.00000000        2 
Si      11.58240908       4.45807133       5.15233247       14       0.00000000        2 
Si       5.79120454       1.11451783       5.15233247       14       0.00000000        2 
Si       1.93040151       1.11451783       5.15233247       14       0.00000000        2 
Si       9.65200756       1.11451783       5.15233247       14       0.00000000        2 
Si       9.65200756       7.80162483       7.51658182       14       0.00000000        1 
Si       5.79120454       7.80162483       7.51658182       14       0.00000000        1 
Si      13.51281059       7.80162483       7.51658182       14       0.00000000        1 
Si       7.72160605       4.45807133       7.51658182       14       0.00000000        1 
Si       3.86080303       4.45807133       7.51658182       14       0.00000000        1 
Si      11.58240908       4.45807133       7.51658182       14       0.00000000        1 
Si       5.79120454       1.11451783       7.51658182       14       0.00000000        1 
Si       1.93040151       1.11451783       7.51658182       14       0.00000000        1 
Si       9.65200756       1.11451783       7.51658182       14       0.00000000        1 
Si      11.58240908       6.68710841       8.07762616       14       0.00000000        1 
Si       7.72806012       6.66124883       8.36510385       14       0.00000000        1 
Si       3.85434896       6.66124883       8.36510385       14       0.00000000        1 
Si       9.63283913       3.36207422       8.36510394       14       0.00000000        1 
Si       5.79120454       3.34355496       8.05802558       14       0.00000000        1 
Si       1.94956995       3.36207422       8.36510394       14       0.00000000        1 
Si       7.69598398       0.00734240       8.36510457       14       0.00000000        1 
Si       3.88642510       0.00734240       8.36510457       14       0.00000000        1 
Si       0.00000000       0.00000186       8.47793445       14       0.00000000        1 
Si      11.58240908       6.68710735      10.35770726       14       0.00000000      999 
Si       8.06929048       6.10272271      10.69652131       14       0.00000000      999 
Si       3.51311859       6.10272271      10.69652131       14       0.00000000      999 
Si       9.31975487       3.93685000      10.69652144       14       0.00000000      999 
Si       5.79120454       3.34355584      10.32874450       14       0.00000000      999 
Si       2.26265421       3.93685000      10.69652144       14       0.00000000      999 
Si       7.04167280      -0.00890822      10.69652299       14       0.00000000      999 
Si       4.54073627      -0.00890822      10.69652299       14       0.00000000      999 
Si       9.78109610       7.72709481      11.54192166       14       0.00000000      999 
Si      13.38372205       7.72709481      11.54192166       14       0.00000000      999 
Si       5.79120454       5.42218689      11.50114475       14       0.00000000      999 
Si       7.59135005       2.30424231      11.50114467       14       0.00000000      999 
Si       3.99105903       2.30424231      11.50114467       14       0.00000000      999 
Si      11.58240908       4.60712806      11.54192181       14       0.00000000      999 
Si       5.79120454       3.34355539      12.90438335       14       0.00000000      999 
Si      11.58240908       6.68710762      12.95003841       14       0.00000000      999 
