108
Lattice="15.0 0.0 0.0 0.0 15.0 0.0 0.0 0.0 7.5" Properties=species:S:1:pos:R:3:Z:I:1:tags:I:1 Origin=Child Ascendance="2 + 1" fitness=-49.6630791799 pbc="T T F" New=T
Al      -0.00330294      -0.00330300       0.00072546       13        2 
Al      -0.00330294       2.49669700       0.00072546       13        2 
Al       2.49669706      -0.00330300       0.00072546       13        2 
Al       2.49669706       2.49669700       0.00072546       13        2 
Al      -0.00330294       4.99669700       0.00072546       13        2 
Al      -0.00330294       7.49669700       0.00072546       13        2 
Al       2.49669706       4.99669700       0.00072546       13        2 
Al       2.49669706       7.49669700       0.00072546       13        2 
Al      -0.00330294       9.99669700       0.00072546       13        2 
Al      -0.00330294      12.49669700       0.00072546       13        2 
Al       2.49669706       9.99669700       0.00072546       13        2 
Al       2.49669706      12.49669700       0.00072546       13        2 
Al       4.99669706      -0.00330300       0.00072546       13        2 
Al       4.99669706       2.49669700       0.00072546       13        2 
Al       7.49669706      -0.00330300       0.00072546       13        2 
Al       7.49669706       2.49669700       0.00072546       13        2 
Al       4.99669706       4.99669700       0.00072546       13        2 
Al       4.99669706       7.49669700       0.00072546       13        2 
Al       7.49669706       4.99669700       0.00072546       13        2 
Al       7.49669706       7.49669700       0.00072546       13        2 
Al       4.99669706       9.99669700       0.00072546       13        2 
Al       4.99669706      12.49669700       0.00072546       13        2 
Al       7.49669706       9.99669700       0.00072546       13        2 
Al       7.49669706      12.49669700       0.00072546       13        2 
Al       9.99669706      -0.00330300       0.00072546       13        2 
Al       9.99669706       2.49669700       0.00072546       13        2 
Al      12.49669706      -0.00330300       0.00072546       13        2 
Al      12.49669706       2.49669700       0.00072546       13        2 
Al       9.99669706       4.99669700       0.00072546       13        2 
Al       9.99669706       7.49669700       0.00072546       13        2 
Al      12.49669706       4.99669700       0.00072546       13        2 
Al      12.49669706       7.49669700       0.00072546       13        2 
Al       9.99669706       9.99669700       0.00072546       13        2 
Al       9.99669706      12.49669700       0.00072546       13        2 
Al      12.49669706       9.99669700       0.00072546       13        2 
Al      12.49669706      12.49669700       0.00072546       13        2 
Al      -0.13029615       2.58563206       2.48042156       13        1 
Al       2.33196256       2.29719817       2.50166911       13        1 
Al       0.02913968       2.47536721       5.03951534       13        0 
Al       2.78967684       2.80244048       4.92939370       13        0 
Al       0.13845672       5.02629281       2.56860689       13        1 
Al      -0.06739655       7.64765337       2.56310783       13        1 
Al       2.60178667       4.83041915       2.56474884       13        1 
Al       2.50299383       7.40429770       2.56494474       13        1 
Al      -0.38340111       4.95505041       5.10861287       13        0 
Al       0.16080695       7.38716449       5.14352763       13        0 
Al       2.21021230       5.27016020       5.12510404       13        0 
Al       2.59123760       7.81500796       5.15880909       13        0 
Al      -0.15356117      10.24008116       2.53886605       13        1 
Al      -0.18313044      12.72477148       2.54148361       13        1 
Al       2.18843058      10.00194263       2.26016955       13        1 
Al       2.26979979      12.47456477       2.60295769       13        1 
Al       0.09971822       9.91656103       5.05628766       13        0 
Al       0.11014034      12.44369514       5.09994070       13        0 
Al       3.40050275      10.05079041       4.24022915       13        0 
Al       2.58432073      12.35380476       5.20504281       13        0 
Al       4.82699015       2.56764328       2.56400761       13        1 
Al       7.40778467       2.47960542       2.56608133       13        1 
Al       5.25980619       2.19622444       5.12497137       13        0 
Al       7.81313224       2.60644124       5.15822099       13        0 
Al       5.02282189       5.02089717       2.52774332       13        1 
Al       5.01905350       7.46082753       2.50183015       13        1 
Al       7.46071484       5.01653892       2.50203036       13        1 
Al       7.47028827       7.47019475       2.54029468       13        1 
Al       4.93810847       4.94076288       5.09325221       13        0 
Al       5.07091857       7.67032048       5.02834160       13        0 
Al       7.67026929       5.07149697       5.02833247       13        0 
Al       7.56149424       7.56155925       5.11464468       13        0 
Al       5.23507543       9.98635867       2.59196937       13        1 
Al       4.84884838      12.56872491       2.55054819       13        1 
Al       7.72313856       9.90136716       2.53365381       13        1 
Al       7.44450114      12.36261730       2.55440685       13        1 
Al       4.47503889       9.93148108       6.45693689       13        0 
Al       5.11906705      12.04826006       5.06443466       13        0 
Al       7.20525556      10.08500079       5.09801251       13        0 
Al       7.56177644      12.67027482       5.12257348       13        0 
Al       9.98590778       2.20359579       2.25565414       13        1 
Al      12.47844713       2.25073954       2.60244474       13        1 
Al      10.05070511       3.40325491       4.23936527       13        0 
Al      12.34673363       2.60722171       5.20784261       13        0 
Al       9.98628048       5.23443582       2.59298553       13        1 
Al       9.90185981       7.72289454       2.53365631       13        1 
Al      12.57485879       4.84583411       2.55120409       13        1 
Al      12.37518095       7.45657480       2.55600793       13        1 
Al       9.93154802       4.47344083       6.45586812       13        0 
Al      10.08340718       7.20478710       5.09856891       13        0 
Al      12.08184843       5.10939012       5.06922430       13        0 
Al      12.65152749       7.56165540       5.12372007       13        0 
Al      10.14738238      10.14926825       2.50874886       13        1 
Al       9.92925550      12.56208981       2.51884425       13        1 
Al      12.51917101       9.92392086       2.52161932       13        1 
Al      12.34741401      12.31688971       2.53648235       13        1 
Al       9.84392189       9.84435410       5.03778878       13        0 
Al      10.08239130      12.45128929       5.07557581       13        0 
Al      12.42237392      10.08432653       5.07716539       13        0 
Al      12.61525939      12.63192905       5.08388218       13        0 
Al       0.50137264       0.24018127       2.62995979       13        1 
Al       3.10231572      -0.20651137       2.48722751       13        1 
Al      -0.27381524      -0.08409660       5.18142114       13        0 
Al       2.29521373       0.17479293       4.98078729       13        0 
Al       5.62538252       0.07140876       2.64374429       13        1 
Al       8.11649149      -0.18068192       2.61306306       13        1 
Al       4.73414430      -0.50150858       5.17555717       13        0 
Al       7.17208392       0.20363254       5.15961703       13        0 
Al      10.61597837      -0.07532670       2.62269737       13        1 
Al      13.04061716      -0.35175457       2.57885462       13        1 
Al       9.71739086       0.53187687       5.08008798       13        0 
Al      12.20260574       0.15742219       5.07363886       13        0 
108
Lattice="15.0 0.0 0.0 0.0 15.0 0.0 0.0 0.0 7.5" Properties=species:S:1:pos:R:3:Z:I:1:tags:I:1 Origin=Mutated New=T fitness=-49.0468974184 pbc="T T F" Ascendance=3
Al      -0.00034155      -0.00034156       0.00017417       13        2 
Al      -0.00034155       2.49965844       0.00017417       13        2 
Al       2.49965845      -0.00034156       0.00017417       13        2 
Al       2.49965845       2.49965844       0.00017417       13        2 
Al      -0.21170161      -0.21170282       2.77944588       13        1 
Al       0.21211750       2.37483235       2.48190838       13        1 
Al       2.37484070       0.21211867       2.48191010       13        1 
Al       2.71752159       2.71752187       2.68408501       13        1 
Al       0.01277126       0.01277124       5.45549933       13        0 
Al       0.03911459       2.67676365       5.01996186       13        0 
Al       2.67676512       0.03911734       5.01996483       13        0 
Al       2.58367426       2.58367907       5.32753643       13        0 
Al      -0.00034155       4.99965844       0.00017417       13        2 
Al      -0.00034155       7.49965844       0.00017417       13        2 
Al       2.49965845       4.99965844       0.00017417       13        2 
Al       2.49965845       7.49965844       0.00017417       13        2 
Al       0.47119575       5.01078446       3.25246091       13        1 
Al      -0.77763051       6.85809294       2.17177983       13        1 
Al       3.02720372       5.21199756       2.51052023       13        1 
Al       1.87811981       7.61529933       2.67884138       13        1 
Al      -0.44353953       4.99733875       6.33451595       13        0 
Al      -0.24081425       7.36631929       4.61878263       13        0 
Al       2.06638220       5.02479531       5.16925631       13        0 
Al       2.44318966       7.55580748       5.40578236       13        0 
Al      -0.00034155       9.99965844       0.00017417       13        2 
Al      -0.00034155      12.49965844       0.00017417       13        2 
Al       2.49965845       9.99965844       0.00017417       13        2 
Al       2.49965845      12.49965844       0.00017417       13        2 
Al      -0.21209471       9.56622469       2.62417436       13        1 
Al       0.28059672      12.21810218       2.53090503       13        1 
Al       2.29591424      10.16457558       2.49926269       13        1 
Al       2.91844751      12.70885364       2.60252105       13        1 
Al      -0.22463956       9.75794683       5.33486679       13        0 
Al       0.28187589      12.39112242       5.12857028       13        0 
Al       2.25707833      10.06126379       5.07516388       13        0 
Al       2.88751147      12.50674415       5.33742699       13        0 
Al       4.99965845      -0.00034156       0.00017417       13        2 
Al       4.99965845       2.49965844       0.00017417       13        2 
Al       7.49965845      -0.00034156       0.00017417       13        2 
Al       7.49965845       2.49965844       0.00017417       13        2 
Al       5.01081744       0.47125273       3.25253548       13        1 
Al       5.21199394       3.02721559       2.51051327       13        1 
Al       6.85798607      -0.77764895       2.17174913       13        1 
Al       7.61529873       1.87811360       2.67883618       13        1 
Al       4.99734197      -0.44352009       6.33453979       13        0 
Al       5.02479155       2.06641618       5.16929490       13        0 
Al       7.36635401      -0.24084046       4.61876043       13        0 
Al       7.55580544       2.44318180       5.40577989       13        0 
Al       4.99965845       4.99965844       0.00017417       13        2 
Al       4.99965845       7.49965844       0.00017417       13        2 
Al       7.49965845       4.99965844       0.00017417       13        2 
Al       7.49965845       7.49965844       0.00017417       13        2 
Al       5.52441845       5.52441382       2.67178937       13        1 
Al       4.75727601       7.74297427       2.46349432       13        1 
Al       7.74299266       4.75728324       2.46349824       13        1 
Al       7.40626113       7.40626878       2.56523978       13        1 
Al       4.78924337       4.78924729       5.20463790       13        0 
Al       4.93395289       7.31263135       4.99181536       13        0 
Al       7.31263375       4.93393864       4.99181683       13        0 
Al       7.26219200       7.26216763       5.10018921       13        0 
Al       4.99965845       9.99965844       0.00017417       13        2 
Al       4.99965845      12.49965844       0.00017417       13        2 
Al       7.49965845       9.99965844       0.00017417       13        2 
Al       7.49965845      12.49965844       0.00017417       13        2 
Al       4.72506987      10.09883414       2.90654002       13        1 
Al       5.02815670      12.96622832       4.39457613       13        1 
Al       7.34636228      10.31193704       2.70947542       13        1 
Al       5.54144652      12.15680964       2.16767637       13        1 
Al       4.83689348      10.18124271       5.47166769       13        0 
Al       7.55567199      12.01144261       4.75754971       13        0 
Al       7.42166588       9.61116887       5.59474483       13        0 
Al       7.28534043      13.69423954       7.42483175       13        0 
Al       9.99965845      -0.00034156       0.00017417       13        2 
Al       9.99965845       2.49965844       0.00017417       13        2 
Al      12.49965845      -0.00034156       0.00017417       13        2 
Al      12.49965845       2.49965844       0.00017417       13        2 
Al       9.56621757      -0.21209402       2.62417157       13        1 
Al      10.16457255       2.29591764       2.49926547       13        1 
Al      12.21810212       0.28059104       2.53090553       13        1 
Al      12.70885162       2.91843998       2.60251523       13        1 
Al       9.75796306      -0.22463852       5.33487278       13        0 
Al      10.06125787       2.25707942       5.07516234       13        0 
Al      12.39112529       0.28187180       5.12856933       13        0 
Al      12.50673986       2.88748233       5.33744245       13        0 
Al       9.99965845       4.99965844       0.00017417       13        2 
Al       9.99965845       7.49965844       0.00017417       13        2 
Al      12.49965845       4.99965844       0.00017417       13        2 
Al      12.49965845       7.49965844       0.00017417       13        2 
Al      10.09888129       4.72507605       2.90651100       13        1 
Al      10.31191873       7.34636166       2.70947136       13        1 
Al      12.96618560       5.02810859       4.39457042       13        1 
Al      12.15685905       5.54151999       2.16767158       13        1 
Al      10.18125804       4.83689254       5.47165344       13        0 
Al       9.61120994       7.42165753       5.59474572       13        0 
Al      12.01147949       7.55568514       4.75747623       13        0 
Al      13.69422199       7.28532545       7.42482346       13        0 
Al       9.99965845       9.99965844       0.00017417       13        2 
Al       9.99965845      12.49965844       0.00017417       13        2 
Al      12.49965845       9.99965844       0.00017417       13        2 
Al      12.49965845      12.49965844       0.00017417       13        2 
Al       9.70450561       9.70450493       2.50824919       13        1 
Al      10.06984259      12.26799410       2.56599039       13        1 
Al      12.26799502      10.06984048       2.56598998       13        1 
Al      12.70869791      12.70869467       2.59079880       13        1 
Al       9.87294655       9.87294286       5.07470259       13        0 
Al      10.06507811      12.35427344       5.20764102       13        0 
Al      12.35427555      10.06507965       5.20764097       13        0 
Al      12.68534118      12.68534186       5.22699792       13        0 
