61
Lattice="11.582409075835649 0.0 0.0 5.7912045379178245 10.030660496697113 0.0 0.0 0.0 37.82124676165759" Properties=species:S:1:pos:R:3:Z:I:1:magmoms:R:1:tags:I:1 New=F pbc="T T F" fitness=1903.13481149
H      11.58240908       8.90630932       2.86193171        1       0.00000000        2 
H       7.71850805       8.91793037       2.86125925        1       0.00000000        2 
H      15.44631011       8.91793037       2.86125925        1       0.00000000        2 
H       9.66052267       5.57750442       2.86193170        1       0.00000000        2 
H       5.79120454       5.56194977       2.86140756        1       0.00000000        2 
H      13.50429548       5.57750442       2.86193170        1       0.00000000        2 
H       7.71239285       2.23435394       2.86140755        1       0.00000000        2 
H       3.87001622       2.23435394       2.86140755        1       0.00000000        2 
H      11.58240908       2.22545752       2.86125925        1       0.00000000        2 
Si      11.58240908       8.91614266       4.36424935       14       0.00000000        2 
Si       7.72160605       8.91614266       4.36424935       14       0.00000000        2 
Si      15.44321210       8.91614266       4.36424935       14       0.00000000        2 
Si       9.65200756       5.57258916       4.36424935       14       0.00000000        2 
Si       5.79120454       5.57258916       4.36424935       14       0.00000000        2 
Si      13.51281059       5.57258916       4.36424935       14       0.00000000        2 
Si       7.72160605       2.22903567       4.36424935       14       0.00000000        2 
Si       3.86080303       2.22903567       4.36424935       14       0.00000000        2 
Si      11.58240908       2.22903567       4.36424935       14       0.00000000        2 
Si       9.65200756       7.80162483       5.15233247       14       0.00000000        2 
Si       5.79120454       7.80162483       5.15233247       14       0.00000000        2 
Si      13.51281059       7.80162483       5.15233247       14       0.00000000        2 
Si       7.72160605       4.45807133       5.15233247       14       0.00000000        2 
Si       3.86080303       4.45807133       5.15233247       14       0.00000000        2 
Si      11.58240908       4.45807133       5.15233247       14       0.00000000        2 
Si       5.79120454       1.11451783       5.15233247       14       0.00000000        2 
Si       1.93040151       1.11451783       5.15233247       14       0.00000000        2 
Si       9.65200756       1.11451783       5.15233247       14       0.00000000        2 
Si       9.65200756       7.80162483       7.51658182       14       0.00000000        1 
Si       5.79120454       7.80162483       7.51658182       14       0.00000000        1 
Si      13.51281059       7.80162483       7.51658182       14       0.00000000        1 
Si       7.72160605       4.45807133       7.51658182       14       0.00000000        1 
Si       3.86080303       4.45807133       7.51658182       14       0.00000000        1 
Si      11.58240908       4.45807133       7.51658182       14       0.00000000        1 
Si       5.79120454       1.11451783       7.51658182       14       0.00000000        1 
Si       1.93040151       1.11451783       7.51658182       14       0.00000000        1 
Si       9.65200756       1.11451783       7.51658182       14       0.00000000        1 
Si      11.58240908       6.68710841       8.07762616       14       0.00000000        1 
Si       7.72806012       6.66124883       8.36510385       14       0.00000000        1 
Si       3.85434896       6.66124883       8.36510385       14       0.00000000        1 
Si       9.63283913       3.36207422       8.36510394       14       0.00000000        1 
Si       5.79120454       3.34355496       8.05802558       14       0.00000000        1 
Si       1.94956995       3.36207422       8.36510394       14       0.00000000        1 
Si       7.69598398       0.00734240       8.36510457       14       0.00000000        1 
Si       3.88642510       0.00734240       8.36510457       14       0.00000000        1 
Si       0.00000000       0.00000186       8.47793445       14       0.00000000        1 
Si      11.58240908       6.68710735      10.35770726       14       0.00000000      999 
Si       8.06929048       6.10272271      10.69652131       14       0.00000000      999 
Si       3.51311859       6.10272271      10.69652131       14       0.00000000      999 
Si       9.31975487       3.93685000      10.69652144       14       0.00000000      999 
Si       5.79120454       3.34355584      10.32874450       14       0.00000000      999 
Si       2.26265421       3.93685000      10.69652144       14       0.00000000      999 
Si       7.04167280      -0.00890822      10.69652299       14       0.00000000      999 
Si       4.54073627      -0.00890822      10.69652299       14       0.00000000      999 
Si       9.78109610       7.72709481      11.54192166       14       0.00000000      999 
Si      13.38372205       7.72709481      11.54192166       14       0.00000000      999 
Si       5.79120454       5.42218689      11.50114475       14       0.00000000      999 
Si       7.59135005       2.30424231      11.50114467       14       0.00000000      999 
Si       3.99105903       2.30424231      11.50114467       14       0.00000000      999 
Si      11.58240908       4.60712806      11.54192181       14       0.00000000      999 
Si       5.79120454       3.34355539      12.90438335       14       0.00000000      999 
Si      11.58240908       6.68710762      12.95003841       14       0.00000000      999 
61
Lattice="11.582409075835649 0.0 0.0 5.7912045379178245 10.030660496697113 0.0 0.0 0.0 37.82124676165759" Properties=species:S:1:pos:R:3:Z:I:1:magmoms:R:1:tags:I:1 Origin=Mutated New=T Ascendance=1 pbc="T T F" fitness=1895.67507052
H      11.58240908       8.90630932       2.86193171        1       0.00000000        2 
H       7.71850805       8.91793037       2.86125925        1       0.00000000        2 
H      15.44631011       8.91793037       2.86125925        1       0.00000000        2 
H       9.66052267       5.57750442       2.86193170        1       0.00000000        2 
H       5.79120454       5.56194977       2.86140756        1       0.00000000        2 
H      13.50429548       5.57750442       2.86193170        1       0.00000000        2 
H       7.71239285       2.23435394       2.86140755        1       0.00000000        2 
H       3.87001622       2.23435394       2.86140755        1       0.00000000        2 
H      11.58240908       2.22545752       2.86125925        1       0.00000000        2 
Si      11.58240908       8.91614266       4.36424935       14       0.00000000        2 
Si       7.72160605       8.91614266       4.36424935       14       0.00000000        2 
Si      15.44321210       8.91614266       4.36424935       14       0.00000000        2 
Si       9.65200756       5.57258916       4.36424935       14       0.00000000        2 
Si       5.79120454       5.57258916       4.36424935       14       0.00000000        2 
Si      13.51281059       5.57258916       4.36424935       14       0.00000000        2 
Si       7.72160605       2.22903567       4.36424935       14       0.00000000        2 
Si       3.86080303       2.22903567       4.36424935       14       0.00000000        2 
Si      11.58240908       2.22903567       4.36424935       14       0.00000000        2 
Si       9.65200756       7.80162483       5.15233247       14       0.00000000        2 
Si       5.79120454       7.80162483       5.15233247       14       0.00000000        2 
Si      13.51281059       7.80162483       5.15233247       14       0.00000000        2 
Si       7.72160605       4.45807133       5.15233247       14       0.00000000        2 
Si       3.86080303       4.45807133       5.15233247       14       0.00000000        2 
Si      11.58240908       4.45807133       5.15233247       14       0.00000000        2 
Si       5.79120454       1.11451783       5.15233247       14       0.00000000        2 
Si       1.93040151       1.11451783       5.15233247       14       0.00000000        2 
Si       9.65200756       1.11451783       5.15233247       14       0.00000000        2 
Si       9.58226736       7.81565878       7.43192103       14       0.00000000        1 
Si       5.70814139       7.71054713       7.74237542       14       0.00000000        1 
Si      13.49571659       7.69496788       7.57312498       14       0.00000000        1 
Si       7.83339444       4.49250329       7.52566107       14       0.00000000        1 
Si       3.89561173       4.45118419       7.52410608       14       0.00000000        1 
Si      11.61299228       4.16813200       7.49622956       14       0.00000000        1 
Si       5.85277619       1.11804516       7.57790499       14       0.00000000        1 
Si       1.89419187       0.95940897       7.54441544       14       0.00000000        1 
Si       9.57808482       0.89772987       7.65771320       14       0.00000000        1 
Si      11.48682538       6.48394846       7.83504513       14       0.00000000        1 
Si       7.81223532       6.70163274       8.54793890       14       0.00000000        1 
Si       3.71796766       6.49997075       8.70628664       14       0.00000000        1 
Si       9.61217640       3.17162469       8.42472380       14       0.00000000        1 
Si       5.86276849       3.41106668       8.32921778       14       0.00000000        1 
Si       2.05165999       3.18597167       8.30616995       14       0.00000000        1 
Si       7.55909534      -0.18554495       8.65219663       14       0.00000000        1 
Si       3.92067200      -0.02624673       8.30530478       14       0.00000000        1 
Si      -0.02167076      -0.08245650       8.59452720       14       0.00000000        1 
Si      11.60560645       6.51169185      10.16015785       14       0.00000000      999 
Si       6.54274196       4.46367083      10.43271479       14       0.00000000      999 
Si       2.98748588       5.59623077      11.00646461       14       0.00000000      999 
Si       8.65894449       2.98811802      10.69051532       14       0.00000000      999 
Si       5.58041828       2.55164261      11.34860033       14       0.00000000      999 
Si       1.94995049       3.40875985      10.66817891       14       0.00000000      999 
Si       6.59758407      -0.73837941      10.94534224       14       0.00000000      999 
Si       4.20164145      -0.46479171      10.61001158       14       0.00000000      999 
Si       9.17666933       7.29811094      10.66528751       14       0.00000000      999 
Si      12.82825595       7.07063808      12.12763802       14       0.00000000      999 
Si       4.53153509       4.38612938      12.61277121       14       0.00000000      999 
Si       6.56629630       0.96947465      12.69537610       14       0.00000000      999 
Si       3.44324974       1.65226801      11.52670303       14       0.00000000      999 
Si      11.03934222       3.85312496      10.74538708       14       0.00000000      999 
Si       4.33419154       1.99461847      13.67956206       14       0.00000000      999 
Si      10.41879292       5.78600591      12.11422528       14       0.00000000      999 
