61
Lattice="11.582409075835649 0.0 0.0 5.7912045379178245 10.030660496697113 0.0 0.0 0.0 37.82124676165759" Properties=species:S:1:pos:R:3:Z:I:1:magmoms:R:1:tags:I:1 Origin=Mutated New=T fitness=1901.05658902 pbc="T T F" Ascendance=4
H      11.58240908       8.90630932       2.86193171        1       0.00000000        2 
H       7.71850805       8.91793037       2.86125925        1       0.00000000        2 
H      15.44631011       8.91793037       2.86125925        1       0.00000000        2 
H       9.66052267       5.57750442       2.86193170        1       0.00000000        2 
H       5.79120454       5.56194977       2.86140756        1       0.00000000        2 
H      13.50429548       5.57750442       2.86193170        1       0.00000000        2 
H       7.71239285       2.23435394       2.86140755        1       0.00000000        2 
H       3.87001622       2.23435394       2.86140755        1       0.00000000        2 
H      11.58240908       2.22545752       2.86125925        1       0.00000000        2 
Si      11.58240908       8.91614266       4.36424935       14       0.00000000        2 
Si       7.72160605       8.91614266       4.36424935       14       0.00000000        2 
Si      15.44321210       8.91614266       4.36424935       14       0.00000000        2 
Si       9.65200756       5.57258916       4.36424935       14       0.00000000        2 
Si       5.79120454       5.57258916       4.36424935       14       0.00000000        2 
Si      13.51281059       5.57258916       4.36424935       14       0.00000000        2 
Si       7.72160605       2.22903567       4.36424935       14       0.00000000        2 
Si       3.86080303       2.22903567       4.36424935       14       0.00000000        2 
Si      11.58240908       2.22903567       4.36424935       14       0.00000000        2 
Si       9.65200756       7.80162483       5.15233247       14       0.00000000        2 
Si       5.79120454       7.80162483       5.15233247       14       0.00000000        2 
Si      13.51281059       7.80162483       5.15233247       14       0.00000000        2 
Si       7.72160605       4.45807133       5.15233247       14       0.00000000        2 
Si       3.86080303       4.45807133       5.15233247       14       0.00000000        2 
Si      11.58240908       4.45807133       5.15233247       14       0.00000000        2 
Si       5.79120454       1.11451783       5.15233247       14       0.00000000        2 
Si       1.93040151       1.11451783       5.15233247       14       0.00000000        2 
Si       9.65200756       1.11451783       5.15233247       14       0.00000000        2 
Si       9.63832345       7.85183209       7.50691790       14       0.00000000        1 
Si       5.87024933       7.87926868       7.64380204       14       0.00000000        1 
Si      13.54786207       7.87025966       7.49564549       14       0.00000000        1 
Si       7.79515302       4.56671574       7.50973264       14       0.00000000        1 
Si       3.87152978       4.51306695       7.44019105       14       0.00000000        1 
Si      11.62817115       4.51554387       7.47752645       14       0.00000000        1 
Si       5.79757566       1.14449387       7.45083201       14       0.00000000        1 
Si       1.92375762       1.10312303       7.54689221       14       0.00000000        1 
Si       9.73075840       1.16311547       7.59753636       14       0.00000000        1 
Si      11.59646296       6.75546963       8.16912635       14       0.00000000        1 
Si       7.81561581       6.73840383       8.45496864       14       0.00000000        1 
Si       3.88671431       6.70959122       8.27207959       14       0.00000000        1 
Si       9.70946006       3.45337892       8.37834385       14       0.00000000        1 
Si       5.82910421       3.40183622       8.11468057       14       0.00000000        1 
Si       1.97443609       3.38043153       8.25030227       14       0.00000000        1 
Si       7.71995612       0.06776171       8.31467149       14       0.00000000        1 
Si       3.91639721       0.03651065       8.35321557       14       0.00000000        1 
Si       0.04692642       0.06645533       8.60948078       14       0.00000000        1 
Si      11.62439973       6.73290835      10.48255505       14       0.00000000      999 
Si       8.22154660       6.16595662      10.72093984       14       0.00000000      999 
Si       3.64064103       5.93889776      10.47209231       14       0.00000000      999 
Si       9.69959538       4.16020275      10.71762749       14       0.00000000      999 
Si       6.09309255       2.90154010      10.37904482       14       0.00000000      999 
Si       2.38566213       3.84658670      10.56485161       14       0.00000000      999 
Si       7.21777083      -0.11672898      10.66157928       14       0.00000000      999 
Si       4.62601870      -0.06087115      10.70315719       14       0.00000000      999 
Si       9.91252595       7.75376933      11.82436072       14       0.00000000      999 
Si      13.60874008       7.70524469      11.45388335       14       0.00000000      999 
Si       5.91107126       5.21340413      11.09084755       14       0.00000000      999 
Si       8.36012074       2.05573465      10.72702071       14       0.00000000      999 
Si       4.09443471       2.20280327      11.63829809       14       0.00000000      999 
Si      11.92164500       4.65089980      11.72294648       14       0.00000000      999 
Si       5.72007524       3.61310159      12.79173999       14       0.00000000      999 
Si      12.11913587       6.67800373      13.11590041       14       0.00000000      999 
61
Lattice="11.582409075835649 0.0 0.0 5.7912045379178245 10.030660496697113 0.0 0.0 0.0 37.82124676165759" Properties=species:S:1:pos:R:3:Z:I:1:magmoms:R:1:tags:I:1 Origin=Mutated New=F Ascendance=2 pbc="T T F" fitness=1900.38541432
H      11.58240908       8.90630932       2.86193171        1       0.00000000        2 
H       7.71850805       8.91793037       2.86125925        1       0.00000000        2 
H      15.44631011       8.91793037       2.86125925        1       0.00000000        2 
H       9.66052267       5.57750442       2.86193170        1       0.00000000        2 
H       5.79120454       5.56194977       2.86140756        1       0.00000000        2 
H      13.50429548       5.57750442       2.86193170        1       0.00000000        2 
H       7.71239285       2.23435394       2.86140755        1       0.00000000        2 
H       3.87001622       2.23435394       2.86140755        1       0.00000000        2 
H      11.58240908       2.22545752       2.86125925        1       0.00000000        2 
Si      11.58240908       8.91614266       4.36424935       14       0.00000000        2 
Si       7.72160605       8.91614266       4.36424935       14       0.00000000        2 
Si      15.44321210       8.91614266       4.36424935       14       0.00000000        2 
Si       9.65200756       5.57258916       4.36424935       14       0.00000000        2 
Si       5.79120454       5.57258916       4.36424935       14       0.00000000        2 
Si      13.51281059       5.57258916       4.36424935       14       0.00000000        2 
Si       7.72160605       2.22903567       4.36424935       14       0.00000000        2 
Si       3.86080303       2.22903567       4.36424935       14       0.00000000        2 
Si      11.58240908       2.22903567       4.36424935       14       0.00000000        2 
Si       9.65200756       7.80162483       5.15233247       14       0.00000000        2 
Si       5.79120454       7.80162483       5.15233247       14       0.00000000        2 
Si      13.51281059       7.80162483       5.15233247       14       0.00000000        2 
Si       7.72160605       4.45807133       5.15233247       14       0.00000000        2 
Si       3.86080303       4.45807133       5.15233247       14       0.00000000        2 
Si      11.58240908       4.45807133       5.15233247       14       0.00000000        2 
Si       5.79120454       1.11451783       5.15233247       14       0.00000000        2 
Si       1.93040151       1.11451783       5.15233247       14       0.00000000        2 
Si       9.65200756       1.11451783       5.15233247       14       0.00000000        2 
Si       9.63574919       7.87638737       7.51685638       14       0.00000000        1 
Si       5.90520283       7.84591221       7.61673433       14       0.00000000        1 
Si      13.52487105       7.81602772       7.45771665       14       0.00000000        1 
Si       7.75147305       4.52288156       7.49107688       14       0.00000000        1 
Si       3.80948298       4.47882104       7.45599373       14       0.00000000        1 
Si      11.47219324       4.35496921       7.57903411       14       0.00000000        1 
Si       5.83276577       1.12909410       7.45781547       14       0.00000000        1 
Si       1.93334663       1.12142988       7.62448808       14       0.00000000        1 
Si       9.71233690       1.06467337       7.50167261       14       0.00000000        1 
Si      11.56846775       6.66727703       8.04262825       14       0.00000000        1 
Si       7.85017788       6.66258133       8.54893341       14       0.00000000        1 
Si       3.89029051       6.70399954       8.22519336       14       0.00000000        1 
Si       9.47831428       3.21428163       8.42465840       14       0.00000000        1 
Si       5.78464931       3.39640119       8.11037570       14       0.00000000        1 
Si       1.92679336       3.39660757       8.39266529       14       0.00000000        1 
Si       7.74886845      -0.00131300       8.24373904       14       0.00000000        1 
Si       3.96852207       0.06364784       8.41464021       14       0.00000000        1 
Si       0.00979781       0.02496459       8.57592513       14       0.00000000        1 
Si      11.79266028       6.80817667      10.35327392       14       0.00000000      999 
Si       8.63849108       6.29766322      10.88030509       14       0.00000000      999 
Si       3.73971276       6.22894403      10.58474715       14       0.00000000      999 
Si       9.63956477       4.35074003      11.99152439       14       0.00000000      999 
Si       6.25559801       3.47214868      10.38366890       14       0.00000000      999 
Si       2.50652554       3.99396622      10.66325044       14       0.00000000      999 
Si       7.47986298       0.14659109      10.58146740       14       0.00000000      999 
Si       4.97097468       0.21017759      10.65756947       14       0.00000000      999 
Si      10.24723517       8.04052415      11.69799783       14       0.00000000      999 
Si      13.66573281       7.85586983      11.43420544       14       0.00000000      999 
Si       6.09929550       5.71430193      11.28058782       14       0.00000000      999 
Si       8.47653965       2.57728998      10.58324305       14       0.00000000      999 
Si       4.30265287       2.46732013      11.47716893       14       0.00000000      999 
Si      12.01498385       4.83965069      11.72843164       14       0.00000000      999 
Si       5.73465734       3.88413995      12.87793476       14       0.00000000      999 
Si      12.06352351       6.97862793      13.07211210       14       0.00000000      999 
