61
Lattice="11.582409075835649 0.0 0.0 5.7912045379178245 10.030660496697113 0.0 0.0 0.0 37.82124676165759" Properties=species:S:1:pos:R:3:Z:I:1:magmoms:R:1:tags:I:1 Origin=Mutated New=T fitness=1887.88606825 pbc="T T F" Ascendance=8
H      11.58240908       8.90630932       2.86193171        1       0.00000000        2 
H       7.71850805       8.91793037       2.86125925        1       0.00000000        2 
H      15.44631011       8.91793037       2.86125925        1       0.00000000        2 
H       9.66052267       5.57750442       2.86193170        1       0.00000000        2 
H       5.79120454       5.56194977       2.86140756        1       0.00000000        2 
H      13.50429548       5.57750442       2.86193170        1       0.00000000        2 
H       7.71239285       2.23435394       2.86140755        1       0.00000000        2 
H       3.87001622       2.23435394       2.86140755        1       0.00000000        2 
H      11.58240908       2.22545752       2.86125925        1       0.00000000        2 
Si      11.58240908       8.91614266       4.36424935       14       0.00000000        2 
Si       7.72160605       8.91614266       4.36424935       14       0.00000000        2 
Si      15.44321210       8.91614266       4.36424935       14       0.00000000        2 
Si       9.65200756       5.57258916       4.36424935       14       0.00000000        2 
Si       5.79120454       5.57258916       4.36424935       14       0.00000000        2 
Si      13.51281059       5.57258916       4.36424935       14       0.00000000        2 
Si       7.72160605       2.22903567       4.36424935       14       0.00000000        2 
Si       3.86080303       2.22903567       4.36424935       14       0.00000000        2 
Si      11.58240908       2.22903567       4.36424935       14       0.00000000        2 
Si       9.65200756       7.80162483       5.15233247       14       0.00000000        2 
Si       5.79120454       7.80162483       5.15233247       14       0.00000000        2 
Si      13.51281059       7.80162483       5.15233247       14       0.00000000        2 
Si       7.72160605       4.45807133       5.15233247       14       0.00000000        2 
Si       3.86080303       4.45807133       5.15233247       14       0.00000000        2 
Si      11.58240908       4.45807133       5.15233247       14       0.00000000        2 
Si       5.79120454       1.11451783       5.15233247       14       0.00000000        2 
Si       1.93040151       1.11451783       5.15233247       14       0.00000000        2 
Si       9.65200756       1.11451783       5.15233247       14       0.00000000        2 
Si       9.69690199       7.88811875       7.52424443       14       0.00000000        1 
Si       5.85051610       7.88575623       7.44440962       14       0.00000000        1 
Si      13.42357731       7.78746118       7.46888530       14       0.00000000        1 
Si       7.31709237       4.44769674       7.39738374       14       0.00000000        1 
Si       4.82432109       4.69778816       7.29530944       14       0.00000000        1 
Si      11.36954012       4.84830484       7.64973701       14       0.00000000        1 
Si       5.74591078       0.92277178       7.55461050       14       0.00000000        1 
Si       1.95651829       0.96328505       7.57891260       14       0.00000000        1 
Si       9.75869210       0.78604590       7.40246108       14       0.00000000        1 
Si      11.56116110       6.97606726       8.73015959       14       0.00000000        1 
Si       7.72494207       6.65196860       8.19833591       14       0.00000000        1 
Si       3.88898417       6.75612041       8.08708074       14       0.00000000        1 
Si       8.94491139       2.85356965       8.27656050       14       0.00000000        1 
Si       6.40836074       2.71019991       9.04100028       14       0.00000000        1 
Si       1.28356085       2.72413353       9.04750817       14       0.00000000        1 
Si       7.77437242      -0.09063782       8.28397219       14       0.00000000        1 
Si       3.82951283      -0.02972871       8.67277732       14       0.00000000        1 
Si       0.03323744      -0.09699219       8.65063211       14       0.00000000        1 
Si       9.83155647       4.49306373       9.73387334       14       0.00000000      999 
Si       9.40399236       6.85595605      10.54244502       14       0.00000000      999 
Si       3.08918540       6.24292684      10.37308644       14       0.00000000      999 
Si      10.83957692       1.88439300      10.27649060       14       0.00000000      999 
Si       6.23556806       4.05358566      11.12626343       14       0.00000000      999 
Si       2.10665870       4.51911565       7.64467208       14       0.00000000      999 
Si       8.39542758       3.42592258      11.96445174       14       0.00000000      999 
Si       8.28330278       1.42559021      10.28381218       14       0.00000000      999 
Si       6.92216089       6.34941431      10.52406896       14       0.00000000      999 
Si      13.83442184       2.33396619      11.42502583       14       0.00000000      999 
Si       5.05700887       7.89531731      10.29903886       14       0.00000000      999 
Si       9.83421791       3.47190414      13.81834681       14       0.00000000      999 
Si       3.81197780       3.57829225       9.32775821       14       0.00000000      999 
Si      11.66143735       2.92147226      12.32812246       14       0.00000000      999 
Si       3.85287893       4.25009606      11.63961263       14       0.00000000      999 
Si      10.61217384       5.11107380      11.93022476       14       0.00000000      999 
61
Lattice="11.582409075835649 0.0 0.0 5.7912045379178245 10.030660496697113 0.0 0.0 0.0 37.82124676165759" Properties=species:S:1:pos:R:3:Z:I:1:magmoms:R:1:tags:I:1 Origin=Mutated New=F Ascendance=6 pbc="T T F" fitness=1887.16848194
H      11.58240908       8.90630932       2.86193171        1       0.00000000        2 
H       7.71850805       8.91793037       2.86125925        1       0.00000000        2 
H      15.44631011       8.91793037       2.86125925        1       0.00000000        2 
H       9.66052267       5.57750442       2.86193170        1       0.00000000        2 
H       5.79120454       5.56194977       2.86140756        1       0.00000000        2 
H      13.50429548       5.57750442       2.86193170        1       0.00000000        2 
H       7.71239285       2.23435394       2.86140755        1       0.00000000        2 
H       3.87001622       2.23435394       2.86140755        1       0.00000000        2 
H      11.58240908       2.22545752       2.86125925        1       0.00000000        2 
Si      11.58240908       8.91614266       4.36424935       14       0.00000000        2 
Si       7.72160605       8.91614266       4.36424935       14       0.00000000        2 
Si      15.44321210       8.91614266       4.36424935       14       0.00000000        2 
Si       9.65200756       5.57258916       4.36424935       14       0.00000000        2 
Si       5.79120454       5.57258916       4.36424935       14       0.00000000        2 
Si      13.51281059       5.57258916       4.36424935       14       0.00000000        2 
Si       7.72160605       2.22903567       4.36424935       14       0.00000000        2 
Si       3.86080303       2.22903567       4.36424935       14       0.00000000        2 
Si      11.58240908       2.22903567       4.36424935       14       0.00000000        2 
Si       9.65200756       7.80162483       5.15233247       14       0.00000000        2 
Si       5.79120454       7.80162483       5.15233247       14       0.00000000        2 
Si      13.51281059       7.80162483       5.15233247       14       0.00000000        2 
Si       7.72160605       4.45807133       5.15233247       14       0.00000000        2 
Si       3.86080303       4.45807133       5.15233247       14       0.00000000        2 
Si      11.58240908       4.45807133       5.15233247       14       0.00000000        2 
Si       5.79120454       1.11451783       5.15233247       14       0.00000000        2 
Si       1.93040151       1.11451783       5.15233247       14       0.00000000        2 
Si       9.65200756       1.11451783       5.15233247       14       0.00000000        2 
Si       9.71079804       7.80050593       7.63352823       14       0.00000000        1 
Si       5.92848233       8.04600630       7.46902564       14       0.00000000        1 
Si      13.59395392       7.87082868       7.52914106       14       0.00000000        1 
Si       7.56247186       4.44731609       7.55443381       14       0.00000000        1 
Si       4.43226196       4.69026109       7.50408298       14       0.00000000        1 
Si      11.50321001       4.43200455       7.49909874       14       0.00000000        1 
Si       5.66236772       0.98820504       7.52192531       14       0.00000000        1 
Si       1.88935193       1.04077786       7.52730696       14       0.00000000        1 
Si       9.65132637       1.06455803       7.46720644       14       0.00000000        1 
Si      11.76428353       6.62329206       8.44841735       14       0.00000000        1 
Si       7.67379183       6.66168196       8.42979820       14       0.00000000        1 
Si       4.08347650       6.90358911       8.48011657       14       0.00000000        1 
Si       9.53703731       3.31847428       8.23337657       14       0.00000000        1 
Si       6.13980189       2.95777320       8.81317415       14       0.00000000        1 
Si       0.93242297       2.76802285       8.90767725       14       0.00000000        1 
Si       7.69447134       0.07943038       8.34858291       14       0.00000000        1 
Si       3.76903150      -0.01205570       8.58151326       14       0.00000000        1 
Si      -0.06990428       0.10545159       8.63276230       14       0.00000000        1 
Si      11.60711268       6.83685309      11.94803449       14       0.00000000      999 
Si       9.41465172       6.58262707      10.63871926       14       0.00000000      999 
Si       1.91128898       6.41197696      10.41331627       14       0.00000000      999 
Si      10.84048915       4.69174475      10.62390880       14       0.00000000      999 
Si       7.06125938       4.15386891      12.07495009       14       0.00000000      999 
Si       2.67866609       4.25729854       9.01455673       14       0.00000000      999 
Si       9.81464490       2.32529338      10.48697669       14       0.00000000      999 
Si       7.58371460       1.52209950      10.41892563       14       0.00000000      999 
Si       7.69187502       6.37586515      12.30397346       14       0.00000000      999 
Si      14.51689903       4.46247995      11.42173189       14       0.00000000      999 
Si       5.94016608       6.57604316      10.23838259       14       0.00000000      999 
Si       8.69061500       2.74280778      13.04749522       14       0.00000000      999 
Si       5.19634682       4.30549722      10.62073935       14       0.00000000      999 
Si      11.07425566       3.02022990      12.41069414       14       0.00000000      999 
Si       1.92281580       2.61776819      12.45624374       14       0.00000000      999 
Si      10.02696676       5.16287664      13.11971228       14       0.00000000      999 
